MODEL 1
REMARK VINA RESULT:      -6.9      2.649      4.003
REMARK  13 active torsions:
REMARK  status: ('A' for Active; 'I' for Inactive)
REMARK    1  A    between atoms: N_1  and  CA_2 
REMARK    2  A    between atoms: CA_2  and  C_3 
REMARK    3  A    between atoms: CA_2  and  CB_5 
REMARK       I    between atoms: C_3  and  N_10 
REMARK    4  A    between atoms: CB_5  and  CG_6 
REMARK    5  A    between atoms: CG_6  and  CD_7 
REMARK    6  A    between atoms: N_10  and  CA_11 
REMARK    7  A    between atoms: CA_11  and  C_12 
REMARK    8  A    between atoms: CA_11  and  CB_14 
REMARK       I    between atoms: C_12  and  N_18 
REMARK    9  A    between atoms: CB_14  and  CG_15 
REMARK   10  A    between atoms: N_18  and  CA_19 
REMARK   11  A    between atoms: CA_19  and  C_20 
REMARK   12  A    between atoms: CA_19  and  CB_22 
REMARK   13  A    between atoms: CB_22  and  CG_23 
ROOT
ATOM      1  CA  MOL A   1       9.743  26.160   6.614  1.00  0.00     0.186 C 
ENDROOT
BRANCH   1   2
ATOM      2  N   MOL A   1       8.681  25.746   5.707  1.00  0.00    -0.345 N 
ATOM      3  C   MOL A   1       8.061  26.602   4.904  1.00  0.00     0.249 C 
ATOM      4  O   MOL A   1       8.303  27.814   4.896  1.00  0.00    -0.271 OA
ATOM      5  H9  MOL A   1       8.409  24.783   5.689  1.00  0.00     0.163 HD
BRANCH   3   6
ATOM      6  CA  MOL A   1       6.967  26.011   4.017  1.00  0.00     0.275 C 
BRANCH   6   7
ATOM      7  N   MOL A   1       5.821  26.954   3.914  1.00  0.00    -0.066 N 
ATOM      8  H1  MOL A   1       4.980  26.440   3.701  1.00  0.00     0.275 HD
ATOM      9  H2  MOL A   1       6.001  27.622   3.180  1.00  0.00     0.275 HD
ATOM     10  H3  MOL A   1       5.704  27.439   4.789  1.00  0.00     0.275 HD
ENDBRANCH   6   7
BRANCH   6  11
ATOM     11  CB  MOL A   1       7.513  25.673   2.628  1.00  0.00     0.053 C 
BRANCH  11  12
ATOM     12  CG  MOL A   1       7.855  24.208   2.439  1.00  0.00     0.115 C 
BRANCH  12  13
ATOM     13  CD  MOL A   1       9.322  23.906   2.669  1.00  0.00     0.172 C 
ATOM     14  OE1 MOL A   1       9.675  23.442   3.779  1.00  0.00    -0.648 OA
ATOM     15  OE2 MOL A   1      10.121  24.120   1.729  1.00  0.00    -0.648 OA
ENDBRANCH  12  13
ENDBRANCH  11  12
ENDBRANCH   6  11
ENDBRANCH   3   6
ENDBRANCH   1   2
BRANCH   1  16
ATOM     16  C   MOL A   1      10.966  25.295   6.365  1.00  0.00     0.241 C 
ATOM     17  O   MOL A   1      11.775  25.585   5.481  1.00  0.00    -0.271 OA
ATOM     18  N   MOL A   1      11.113  24.259   7.186  1.00  0.00    -0.345 N 
ATOM     19  H13 MOL A   1      10.418  24.096   7.886  1.00  0.00     0.163 HD
BRANCH  18  20
ATOM     20  CA  MOL A   1      12.250  23.356   7.100  1.00  0.00     0.185 C 
BRANCH  20  21
ATOM     21  C   MOL A   1      11.975  22.131   6.247  1.00  0.00     0.196 C 
ATOM     22  OXT MOL A   1      12.712  21.925   5.261  1.00  0.00    -0.646 OA
ATOM     23  O   MOL A   1      11.025  21.388   6.574  1.00  0.00    -0.646 OA
ENDBRANCH  20  21
BRANCH  20  24
ATOM     24  CB  MOL A   1      12.664  22.937   8.503  1.00  0.00     0.040 C 
BRANCH  24  25
ATOM     25  CG  MOL A   1      14.022  22.246   8.445  1.00  0.00    -0.020 C 
ATOM     26  CD2 MOL A   1      14.291  21.531   9.760  1.00  0.00     0.009 C 
ATOM     27  CD1 MOL A   1      15.094  23.234   8.094  1.00  0.00     0.009 C 
ENDBRANCH  24  25
ENDBRANCH  20  24
ENDBRANCH  18  20
ENDBRANCH   1  16
BRANCH   1  28
ATOM     28  CB  MOL A   1       9.262  26.044   8.059  1.00  0.00     0.147 C 
BRANCH  28  29
ATOM     29  CG  MOL A   1       8.673  27.344   8.566  1.00  0.00     0.175 C 
ATOM     30  OD1 MOL A   1       8.903  28.377   7.910  1.00  0.00    -0.648 OA
ATOM     31  OD2 MOL A   1       7.949  27.333   9.588  1.00  0.00    -0.648 OA
ENDBRANCH  28  29
ENDBRANCH   1  28
TORSDOF 13
ENDMDL
MODEL 2
REMARK VINA RESULT:      -6.9      1.991      2.851
REMARK  13 active torsions:
REMARK  status: ('A' for Active; 'I' for Inactive)
REMARK    1  A    between atoms: N_1  and  CA_2 
REMARK    2  A    between atoms: CA_2  and  C_3 
REMARK    3  A    between atoms: CA_2  and  CB_5 
REMARK       I    between atoms: C_3  and  N_10 
REMARK    4  A    between atoms: CB_5  and  CG_6 
REMARK    5  A    between atoms: CG_6  and  CD_7 
REMARK    6  A    between atoms: N_10  and  CA_11 
REMARK    7  A    between atoms: CA_11  and  C_12 
REMARK    8  A    between atoms: CA_11  and  CB_14 
REMARK       I    between atoms: C_12  and  N_18 
REMARK    9  A    between atoms: CB_14  and  CG_15 
REMARK   10  A    between atoms: N_18  and  CA_19 
REMARK   11  A    between atoms: CA_19  and  C_20 
REMARK   12  A    between atoms: CA_19  and  CB_22 
REMARK   13  A    between atoms: CB_22  and  CG_23 
ROOT
ATOM      1  CA  MOL A   1       9.389  26.224   6.510  1.00  0.00     0.186 C 
ENDROOT
BRANCH   1   2
ATOM      2  N   MOL A   1       7.943  26.309   6.351  1.00  0.00    -0.345 N 
ATOM      3  C   MOL A   1       7.376  27.061   5.416  1.00  0.00     0.249 C 
ATOM      4  O   MOL A   1       8.023  27.779   4.644  1.00  0.00    -0.271 OA
ATOM      5  H9  MOL A   1       7.358  25.781   6.966  1.00  0.00     0.163 HD
BRANCH   3   6
ATOM      6  CA  MOL A   1       5.849  27.045   5.382  1.00  0.00     0.275 C 
BRANCH   6   7
ATOM      7  N   MOL A   1       5.361  25.838   4.663  1.00  0.00    -0.066 N 
ATOM      8  H1  MOL A   1       4.899  25.223   5.313  1.00  0.00     0.275 HD
ATOM      9  H2  MOL A   1       6.142  25.358   4.244  1.00  0.00     0.275 HD
ATOM     10  H3  MOL A   1       4.711  26.115   3.943  1.00  0.00     0.275 HD
ENDBRANCH   6   7
BRANCH   6  11
ATOM     11  CB  MOL A   1       5.271  27.098   6.799  1.00  0.00     0.053 C 
BRANCH  11  12
ATOM     12  CG  MOL A   1       3.886  27.708   6.877  1.00  0.00     0.115 C 
BRANCH  12  13
ATOM     13  CD  MOL A   1       2.796  26.679   7.108  1.00  0.00     0.172 C 
ATOM     14  OE1 MOL A   1       2.971  25.512   6.687  1.00  0.00    -0.648 OA
ATOM     15  OE2 MOL A   1       1.768  27.040   7.725  1.00  0.00    -0.648 OA
ENDBRANCH  12  13
ENDBRANCH  11  12
ENDBRANCH   6  11
ENDBRANCH   3   6
ENDBRANCH   1   2
BRANCH   1  16
ATOM     16  C   MOL A   1       9.856  24.861   6.033  1.00  0.00     0.241 C 
ATOM     17  O   MOL A   1       9.630  23.847   6.699  1.00  0.00    -0.271 OA
ATOM     18  N   MOL A   1      10.466  24.845   4.852  1.00  0.00    -0.345 N 
ATOM     19  H13 MOL A   1      10.603  25.709   4.367  1.00  0.00     0.163 HD
BRANCH  18  20
ATOM     20  CA  MOL A   1      10.942  23.613   4.241  1.00  0.00     0.185 C 
BRANCH  20  21
ATOM     21  C   MOL A   1      12.445  23.433   4.354  1.00  0.00     0.196 C 
ATOM     22  OXT MOL A   1      12.927  22.324   4.046  1.00  0.00    -0.646 OA
ATOM     23  O   MOL A   1      13.125  24.404   4.750  1.00  0.00    -0.646 OA
ENDBRANCH  20  21
BRANCH  20  24
ATOM     24  CB  MOL A   1      10.519  23.583   2.779  1.00  0.00     0.040 C 
BRANCH  24  25
ATOM     25  CG  MOL A   1       9.355  22.613   2.610  1.00  0.00    -0.020 C 
ATOM     26  CD2 MOL A   1       9.727  21.537   1.600  1.00  0.00     0.009 C 
ATOM     27  CD1 MOL A   1       8.109  23.355   2.230  1.00  0.00     0.009 C 
ENDBRANCH  24  25
ENDBRANCH  20  24
ENDBRANCH  18  20
ENDBRANCH   1  16
BRANCH   1  28
ATOM     28  CB  MOL A   1       9.761  26.463   7.971  1.00  0.00     0.147 C 
BRANCH  28  29
ATOM     29  CG  MOL A   1       8.910  27.545   8.604  1.00  0.00     0.175 C 
ATOM     30  OD1 MOL A   1       9.028  28.703   8.164  1.00  0.00    -0.648 OA
ATOM     31  OD2 MOL A   1       8.097  27.237   9.505  1.00  0.00    -0.648 OA
ENDBRANCH  28  29
ENDBRANCH   1  28
TORSDOF 13
ENDMDL
MODEL 3
REMARK VINA RESULT:      -6.7      2.525      3.719
REMARK  13 active torsions:
REMARK  status: ('A' for Active; 'I' for Inactive)
REMARK    1  A    between atoms: N_1  and  CA_2 
REMARK    2  A    between atoms: CA_2  and  C_3 
REMARK    3  A    between atoms: CA_2  and  CB_5 
REMARK       I    between atoms: C_3  and  N_10 
REMARK    4  A    between atoms: CB_5  and  CG_6 
REMARK    5  A    between atoms: CG_6  and  CD_7 
REMARK    6  A    between atoms: N_10  and  CA_11 
REMARK    7  A    between atoms: CA_11  and  C_12 
REMARK    8  A    between atoms: CA_11  and  CB_14 
REMARK       I    between atoms: C_12  and  N_18 
REMARK    9  A    between atoms: CB_14  and  CG_15 
REMARK   10  A    between atoms: N_18  and  CA_19 
REMARK   11  A    between atoms: CA_19  and  C_20 
REMARK   12  A    between atoms: CA_19  and  CB_22 
REMARK   13  A    between atoms: CB_22  and  CG_23 
ROOT
ATOM      1  CA  MOL A   1       9.801  25.932   7.054  1.00  0.00     0.186 C 
ENDROOT
BRANCH   1   2
ATOM      2  N   MOL A   1       8.565  25.694   6.321  1.00  0.00    -0.345 N 
ATOM      3  C   MOL A   1       8.043  26.596   5.499  1.00  0.00     0.249 C 
ATOM      4  O   MOL A   1       8.536  27.716   5.327  1.00  0.00    -0.271 OA
ATOM      5  H9  MOL A   1       8.093  24.820   6.442  1.00  0.00     0.163 HD
BRANCH   3   6
ATOM      6  CA  MOL A   1       6.740  26.195   4.809  1.00  0.00     0.275 C 
BRANCH   6   7
ATOM      7  N   MOL A   1       5.584  26.421   5.717  1.00  0.00    -0.066 N 
ATOM      8  H1  MOL A   1       4.739  26.492   5.174  1.00  0.00     0.275 HD
ATOM      9  H2  MOL A   1       5.725  27.276   6.233  1.00  0.00     0.275 HD
ATOM     10  H3  MOL A   1       5.505  25.650   6.361  1.00  0.00     0.275 HD
ENDBRANCH   6   7
BRANCH   6  11
ATOM     11  CB  MOL A   1       6.556  26.965   3.499  1.00  0.00     0.053 C 
BRANCH  11  12
ATOM     12  CG  MOL A   1       7.012  26.207   2.268  1.00  0.00     0.115 C 
BRANCH  12  13
ATOM     13  CD  MOL A   1       7.582  27.109   1.192  1.00  0.00     0.172 C 
ATOM     14  OE1 MOL A   1       8.227  28.126   1.538  1.00  0.00    -0.648 OA
ATOM     15  OE2 MOL A   1       7.395  26.789  -0.004  1.00  0.00    -0.648 OA
ENDBRANCH  12  13
ENDBRANCH  11  12
ENDBRANCH   6  11
ENDBRANCH   3   6
ENDBRANCH   1   2
BRANCH   1  16
ATOM     16  C   MOL A   1      10.892  25.049   6.476  1.00  0.00     0.241 C 
ATOM     17  O   MOL A   1      11.504  25.384   5.460  1.00  0.00    -0.271 OA
ATOM     18  N   MOL A   1      11.158  23.942   7.164  1.00  0.00    -0.345 N 
ATOM     19  H13 MOL A   1      10.624  23.744   7.986  1.00  0.00     0.163 HD
BRANCH  18  20
ATOM     20  CA  MOL A   1      12.200  23.010   6.761  1.00  0.00     0.185 C 
BRANCH  20  21
ATOM     21  C   MOL A   1      11.699  21.927   5.822  1.00  0.00     0.196 C 
ATOM     22  OXT MOL A   1      11.956  22.041   4.606  1.00  0.00    -0.646 OA
ATOM     23  O   MOL A   1      11.056  20.974   6.312  1.00  0.00    -0.646 OA
ENDBRANCH  20  21
BRANCH  20  24
ATOM     24  CB  MOL A   1      12.818  22.383   8.003  1.00  0.00     0.040 C 
BRANCH  24  25
ATOM     25  CG  MOL A   1      13.821  23.355   8.613  1.00  0.00    -0.020 C 
ATOM     26  CD2 MOL A   1      15.131  23.292   7.841  1.00  0.00     0.009 C 
ATOM     27  CD1 MOL A   1      13.998  23.072  10.074  1.00  0.00     0.009 C 
ENDBRANCH  24  25
ENDBRANCH  20  24
ENDBRANCH  18  20
ENDBRANCH   1  16
BRANCH   1  28
ATOM     28  CB  MOL A   1       9.582  25.651   8.539  1.00  0.00     0.147 C 
BRANCH  28  29
ATOM     29  CG  MOL A   1       8.123  25.762   8.929  1.00  0.00     0.175 C 
ATOM     30  OD1 MOL A   1       7.641  26.904   9.045  1.00  0.00    -0.648 OA
ATOM     31  OD2 MOL A   1       7.446  24.719   9.076  1.00  0.00    -0.648 OA
ENDBRANCH  28  29
ENDBRANCH   1  28
TORSDOF 13
ENDMDL
MODEL 4
REMARK VINA RESULT:      -6.5      2.454      3.613
REMARK  13 active torsions:
REMARK  status: ('A' for Active; 'I' for Inactive)
REMARK    1  A    between atoms: N_1  and  CA_2 
REMARK    2  A    between atoms: CA_2  and  C_3 
REMARK    3  A    between atoms: CA_2  and  CB_5 
REMARK       I    between atoms: C_3  and  N_10 
REMARK    4  A    between atoms: CB_5  and  CG_6 
REMARK    5  A    between atoms: CG_6  and  CD_7 
REMARK    6  A    between atoms: N_10  and  CA_11 
REMARK    7  A    between atoms: CA_11  and  C_12 
REMARK    8  A    between atoms: CA_11  and  CB_14 
REMARK       I    between atoms: C_12  and  N_18 
REMARK    9  A    between atoms: CB_14  and  CG_15 
REMARK   10  A    between atoms: N_18  and  CA_19 
REMARK   11  A    between atoms: CA_19  and  C_20 
REMARK   12  A    between atoms: CA_19  and  CB_22 
REMARK   13  A    between atoms: CB_22  and  CG_23 
ROOT
ATOM      1  CA  MOL A   1       9.497  26.017   5.856  1.00  0.00     0.186 C 
ENDROOT
BRANCH   1   2
ATOM      2  N   MOL A   1       8.430  25.249   5.228  1.00  0.00    -0.345 N 
ATOM      3  C   MOL A   1       8.260  25.216   3.912  1.00  0.00     0.249 C 
ATOM      4  O   MOL A   1       8.958  25.865   3.126  1.00  0.00    -0.271 OA
ATOM      5  H9  MOL A   1       7.804  24.728   5.809  1.00  0.00     0.163 HD
BRANCH   3   6
ATOM      6  CA  MOL A   1       7.092  24.367   3.412  1.00  0.00     0.275 C 
BRANCH   6   7
ATOM      7  N   MOL A   1       5.811  24.863   3.984  1.00  0.00    -0.066 N 
ATOM      8  H1  MOL A   1       5.042  24.359   3.573  1.00  0.00     0.275 HD
ATOM      9  H2  MOL A   1       5.713  25.847   3.785  1.00  0.00     0.275 HD
ATOM     10  H3  MOL A   1       5.810  24.720   4.982  1.00  0.00     0.275 HD
ENDBRANCH   6   7
BRANCH   6  11
ATOM     11  CB  MOL A   1       7.034  24.365   1.883  1.00  0.00     0.053 C 
BRANCH  11  12
ATOM     12  CG  MOL A   1       5.900  25.191   1.308  1.00  0.00     0.115 C 
BRANCH  12  13
ATOM     13  CD  MOL A   1       6.275  26.645   1.090  1.00  0.00     0.172 C 
ATOM     14  OE1 MOL A   1       6.614  27.013  -0.058  1.00  0.00    -0.648 OA
ATOM     15  OE2 MOL A   1       6.214  27.420   2.071  1.00  0.00    -0.648 OA
ENDBRANCH  12  13
ENDBRANCH  11  12
ENDBRANCH   6  11
ENDBRANCH   3   6
ENDBRANCH   1   2
BRANCH   1  16
ATOM     16  C   MOL A   1      10.765  25.182   5.860  1.00  0.00     0.241 C 
ATOM     17  O   MOL A   1      11.863  25.700   5.644  1.00  0.00    -0.271 OA
ATOM     18  N   MOL A   1      10.603  23.896   6.157  1.00  0.00    -0.345 N 
ATOM     19  H13 MOL A   1       9.680  23.552   6.331  1.00  0.00     0.163 HD
BRANCH  18  20
ATOM     20  CA  MOL A   1      11.724  22.971   6.237  1.00  0.00     0.185 C 
BRANCH  20  21
ATOM     21  C   MOL A   1      11.451  21.643   5.556  1.00  0.00     0.196 C 
ATOM     22  OXT MOL A   1      10.931  21.663   4.421  1.00  0.00    -0.646 OA
ATOM     23  O   MOL A   1      11.760  20.596   6.163  1.00  0.00    -0.646 OA
ENDBRANCH  20  21
BRANCH  20  24
ATOM     24  CB  MOL A   1      12.084  22.746   7.699  1.00  0.00     0.040 C 
BRANCH  24  25
ATOM     25  CG  MOL A   1      13.379  23.485   8.020  1.00  0.00    -0.020 C 
ATOM     26  CD2 MOL A   1      14.437  23.138   6.984  1.00  0.00     0.009 C 
ATOM     27  CD1 MOL A   1      13.819  23.180   9.420  1.00  0.00     0.009 C 
ENDBRANCH  24  25
ENDBRANCH  20  24
ENDBRANCH  18  20
ENDBRANCH   1  16
BRANCH   1  28
ATOM     28  CB  MOL A   1       9.084  26.414   7.271  1.00  0.00     0.147 C 
BRANCH  28  29
ATOM     29  CG  MOL A   1       8.502  27.811   7.321  1.00  0.00     0.175 C 
ATOM     30  OD1 MOL A   1       7.574  28.078   6.534  1.00  0.00    -0.648 OA
ATOM     31  OD2 MOL A   1       8.933  28.627   8.167  1.00  0.00    -0.648 OA
ENDBRANCH  28  29
ENDBRANCH   1  28
TORSDOF 13
ENDMDL
MODEL 5
REMARK VINA RESULT:      -6.3      1.482      1.944
REMARK  13 active torsions:
REMARK  status: ('A' for Active; 'I' for Inactive)
REMARK    1  A    between atoms: N_1  and  CA_2 
REMARK    2  A    between atoms: CA_2  and  C_3 
REMARK    3  A    between atoms: CA_2  and  CB_5 
REMARK       I    between atoms: C_3  and  N_10 
REMARK    4  A    between atoms: CB_5  and  CG_6 
REMARK    5  A    between atoms: CG_6  and  CD_7 
REMARK    6  A    between atoms: N_10  and  CA_11 
REMARK    7  A    between atoms: CA_11  and  C_12 
REMARK    8  A    between atoms: CA_11  and  CB_14 
REMARK       I    between atoms: C_12  and  N_18 
REMARK    9  A    between atoms: CB_14  and  CG_15 
REMARK   10  A    between atoms: N_18  and  CA_19 
REMARK   11  A    between atoms: CA_19  and  C_20 
REMARK   12  A    between atoms: CA_19  and  CB_22 
REMARK   13  A    between atoms: CB_22  and  CG_23 
ROOT
ATOM      1  CA  MOL A   1       9.413  25.993   6.640  1.00  0.00     0.186 C 
ENDROOT
BRANCH   1   2
ATOM      2  N   MOL A   1       7.989  26.045   6.337  1.00  0.00    -0.345 N 
ATOM      3  C   MOL A   1       7.484  26.899   5.455  1.00  0.00     0.249 C 
ATOM      4  O   MOL A   1       8.168  27.740   4.862  1.00  0.00    -0.271 OA
ATOM      5  H9  MOL A   1       7.372  25.416   6.809  1.00  0.00     0.163 HD
BRANCH   3   6
ATOM      6  CA  MOL A   1       5.971  26.831   5.254  1.00  0.00     0.275 C 
BRANCH   6   7
ATOM      7  N   MOL A   1       5.306  27.971   5.942  1.00  0.00    -0.066 N 
ATOM      8  H1  MOL A   1       5.043  28.666   5.262  1.00  0.00     0.275 HD
ATOM      9  H2  MOL A   1       5.943  28.377   6.610  1.00  0.00     0.275 HD
ATOM     10  H3  MOL A   1       4.482  27.641   6.420  1.00  0.00     0.275 HD
ENDBRANCH   6   7
BRANCH   6  11
ATOM     11  CB  MOL A   1       5.618  26.822   3.764  1.00  0.00     0.053 C 
BRANCH  11  12
ATOM     12  CG  MOL A   1       5.164  25.471   3.247  1.00  0.00     0.115 C 
BRANCH  12  13
ATOM     13  CD  MOL A   1       3.818  25.045   3.798  1.00  0.00     0.172 C 
ATOM     14  OE1 MOL A   1       2.881  25.877   3.809  1.00  0.00    -0.648 OA
ATOM     15  OE2 MOL A   1       3.696  23.868   4.208  1.00  0.00    -0.648 OA
ENDBRANCH  12  13
ENDBRANCH  11  12
ENDBRANCH   6  11
ENDBRANCH   3   6
ENDBRANCH   1   2
BRANCH   1  16
ATOM     16  C   MOL A   1      10.008  24.756   5.991  1.00  0.00     0.241 C 
ATOM     17  O   MOL A   1       9.893  23.648   6.520  1.00  0.00    -0.271 OA
ATOM     18  N   MOL A   1      10.602  24.953   4.818  1.00  0.00    -0.345 N 
ATOM     19  H13 MOL A   1      10.646  25.882   4.449  1.00  0.00     0.163 HD
BRANCH  18  20
ATOM     20  CA  MOL A   1      11.190  23.864   4.053  1.00  0.00     0.185 C 
BRANCH  20  21
ATOM     21  C   MOL A   1      12.622  23.561   4.452  1.00  0.00     0.196 C 
ATOM     22  OXT MOL A   1      13.004  22.373   4.411  1.00  0.00    -0.646 OA
ATOM     23  O   MOL A   1      13.350  24.515   4.802  1.00  0.00    -0.646 OA
ENDBRANCH  20  21
BRANCH  20  24
ATOM     24  CB  MOL A   1      11.118  24.199   2.569  1.00  0.00     0.040 C 
BRANCH  24  25
ATOM     25  CG  MOL A   1       9.822  23.645   1.989  1.00  0.00    -0.020 C 
ATOM     26  CD2 MOL A   1       8.728  24.700   2.078  1.00  0.00     0.009 C 
ATOM     27  CD1 MOL A   1       9.448  22.366   2.674  1.00  0.00     0.009 C 
ENDBRANCH  24  25
ENDBRANCH  20  24
ENDBRANCH  18  20
ENDBRANCH   1  16
BRANCH   1  28
ATOM     28  CB  MOL A   1       9.618  25.983   8.153  1.00  0.00     0.147 C 
BRANCH  28  29
ATOM     29  CG  MOL A   1       8.303  25.960   8.904  1.00  0.00     0.175 C 
ATOM     30  OD1 MOL A   1       7.822  27.052   9.259  1.00  0.00    -0.648 OA
ATOM     31  OD2 MOL A   1       7.728  24.865   9.102  1.00  0.00    -0.648 OA
ENDBRANCH  28  29
ENDBRANCH   1  28
TORSDOF 13
ENDMDL
MODEL 6
REMARK VINA RESULT:      -6.3      1.076      1.414
REMARK  13 active torsions:
REMARK  status: ('A' for Active; 'I' for Inactive)
REMARK    1  A    between atoms: N_1  and  CA_2 
REMARK    2  A    between atoms: CA_2  and  C_3 
REMARK    3  A    between atoms: CA_2  and  CB_5 
REMARK       I    between atoms: C_3  and  N_10 
REMARK    4  A    between atoms: CB_5  and  CG_6 
REMARK    5  A    between atoms: CG_6  and  CD_7 
REMARK    6  A    between atoms: N_10  and  CA_11 
REMARK    7  A    between atoms: CA_11  and  C_12 
REMARK    8  A    between atoms: CA_11  and  CB_14 
REMARK       I    between atoms: C_12  and  N_18 
REMARK    9  A    between atoms: CB_14  and  CG_15 
REMARK   10  A    between atoms: N_18  and  CA_19 
REMARK   11  A    between atoms: CA_19  and  C_20 
REMARK   12  A    between atoms: CA_19  and  CB_22 
REMARK   13  A    between atoms: CB_22  and  CG_23 
ROOT
ATOM      1  CA  MOL A   1       9.489  25.920   6.527  1.00  0.00     0.186 C 
ENDROOT
BRANCH   1   2
ATOM      2  N   MOL A   1       8.090  25.931   6.122  1.00  0.00    -0.345 N 
ATOM      3  C   MOL A   1       7.589  26.871   5.329  1.00  0.00     0.249 C 
ATOM      4  O   MOL A   1       8.254  27.826   4.913  1.00  0.00    -0.271 OA
ATOM      5  H9  MOL A   1       7.486  25.206   6.453  1.00  0.00     0.163 HD
BRANCH   3   6
ATOM      6  CA  MOL A   1       6.102  26.744   5.002  1.00  0.00     0.275 C 
BRANCH   6   7
ATOM      7  N   MOL A   1       5.299  27.616   5.900  1.00  0.00    -0.066 N 
ATOM      8  H1  MOL A   1       5.375  28.573   5.595  1.00  0.00     0.275 HD
ATOM      9  H2  MOL A   1       5.645  27.536   6.843  1.00  0.00     0.275 HD
ATOM     10  H3  MOL A   1       4.333  27.330   5.871  1.00  0.00     0.275 HD
ENDBRANCH   6   7
BRANCH   6  11
ATOM     11  CB  MOL A   1       5.835  27.089   3.535  1.00  0.00     0.053 C 
BRANCH  11  12
ATOM     12  CG  MOL A   1       6.658  26.282   2.551  1.00  0.00     0.115 C 
BRANCH  12  13
ATOM     13  CD  MOL A   1       7.146  27.100   1.372  1.00  0.00     0.172 C 
ATOM     14  OE1 MOL A   1       6.568  26.970   0.268  1.00  0.00    -0.648 OA
ATOM     15  OE2 MOL A   1       8.103  27.886   1.558  1.00  0.00    -0.648 OA
ENDBRANCH  12  13
ENDBRANCH  11  12
ENDBRANCH   6  11
ENDBRANCH   3   6
ENDBRANCH   1   2
BRANCH   1  16
ATOM     16  C   MOL A   1      10.096  24.578   6.158  1.00  0.00     0.241 C 
ATOM     17  O   MOL A   1       9.769  23.551   6.758  1.00  0.00    -0.271 OA
ATOM     18  N   MOL A   1      10.944  24.594   5.134  1.00  0.00    -0.345 N 
ATOM     19  H13 MOL A   1      11.151  25.467   4.692  1.00  0.00     0.163 HD
BRANCH  18  20
ATOM     20  CA  MOL A   1      11.582  23.385   4.637  1.00  0.00     0.185 C 
BRANCH  20  21
ATOM     21  C   MOL A   1      13.040  23.269   5.045  1.00  0.00     0.196 C 
ATOM     22  OXT MOL A   1      13.440  22.170   5.484  1.00  0.00    -0.646 OA
ATOM     23  O   MOL A   1      13.767  24.277   4.922  1.00  0.00    -0.646 OA
ENDBRANCH  20  21
BRANCH  20  24
ATOM     24  CB  MOL A   1      11.458  23.341   3.120  1.00  0.00     0.040 C 
BRANCH  24  25
ATOM     25  CG  MOL A   1       9.995  23.143   2.739  1.00  0.00    -0.020 C 
ATOM     26  CD2 MOL A   1       9.805  21.759   2.135  1.00  0.00     0.009 C 
ATOM     27  CD1 MOL A   1       9.542  24.239   1.824  1.00  0.00     0.009 C 
ENDBRANCH  24  25
ENDBRANCH  20  24
ENDBRANCH  18  20
ENDBRANCH   1  16
BRANCH   1  28
ATOM     28  CB  MOL A   1       9.595  26.188   8.026  1.00  0.00     0.147 C 
BRANCH  28  29
ATOM     29  CG  MOL A   1       8.254  26.069   8.720  1.00  0.00     0.175 C 
ATOM     30  OD1 MOL A   1       7.603  27.115   8.900  1.00  0.00    -0.648 OA
ATOM     31  OD2 MOL A   1       7.829  24.937   9.045  1.00  0.00    -0.648 OA
ENDBRANCH  28  29
ENDBRANCH   1  28
TORSDOF 13
ENDMDL
MODEL 7
REMARK VINA RESULT:      -6.3      2.251      3.534
REMARK  13 active torsions:
REMARK  status: ('A' for Active; 'I' for Inactive)
REMARK    1  A    between atoms: N_1  and  CA_2 
REMARK    2  A    between atoms: CA_2  and  C_3 
REMARK    3  A    between atoms: CA_2  and  CB_5 
REMARK       I    between atoms: C_3  and  N_10 
REMARK    4  A    between atoms: CB_5  and  CG_6 
REMARK    5  A    between atoms: CG_6  and  CD_7 
REMARK    6  A    between atoms: N_10  and  CA_11 
REMARK    7  A    between atoms: CA_11  and  C_12 
REMARK    8  A    between atoms: CA_11  and  CB_14 
REMARK       I    between atoms: C_12  and  N_18 
REMARK    9  A    between atoms: CB_14  and  CG_15 
REMARK   10  A    between atoms: N_18  and  CA_19 
REMARK   11  A    between atoms: CA_19  and  C_20 
REMARK   12  A    between atoms: CA_19  and  CB_22 
REMARK   13  A    between atoms: CB_22  and  CG_23 
ROOT
ATOM      1  CA  MOL A   1       9.393  25.619   6.356  1.00  0.00     0.186 C 
ENDROOT
BRANCH   1   2
ATOM      2  N   MOL A   1       7.966  25.913   6.330  1.00  0.00    -0.345 N 
ATOM      3  C   MOL A   1       7.476  26.989   5.727  1.00  0.00     0.249 C 
ATOM      4  O   MOL A   1       8.188  27.842   5.185  1.00  0.00    -0.271 OA
ATOM      5  H9  MOL A   1       7.335  25.283   6.782  1.00  0.00     0.163 HD
BRANCH   3   6
ATOM      6  CA  MOL A   1       5.959  27.157   5.793  1.00  0.00     0.275 C 
BRANCH   6   7
ATOM      7  N   MOL A   1       5.283  26.036   5.086  1.00  0.00    -0.066 N 
ATOM      8  H1  MOL A   1       4.446  26.376   4.640  1.00  0.00     0.275 HD
ATOM      9  H2  MOL A   1       5.043  25.317   5.750  1.00  0.00     0.275 HD
ATOM     10  H3  MOL A   1       5.904  25.656   4.388  1.00  0.00     0.275 HD
ENDBRANCH   6   7
BRANCH   6  11
ATOM     11  CB  MOL A   1       5.482  27.242   7.245  1.00  0.00     0.053 C 
BRANCH  11  12
ATOM     12  CG  MOL A   1       3.979  27.124   7.409  1.00  0.00     0.115 C 
BRANCH  12  13
ATOM     13  CD  MOL A   1       3.319  28.430   7.803  1.00  0.00     0.172 C 
ATOM     14  OE1 MOL A   1       3.702  29.488   7.252  1.00  0.00    -0.648 OA
ATOM     15  OE2 MOL A   1       2.404  28.393   8.656  1.00  0.00    -0.648 OA
ENDBRANCH  12  13
ENDBRANCH  11  12
ENDBRANCH   6  11
ENDBRANCH   3   6
ENDBRANCH   1   2
BRANCH   1  16
ATOM     16  C   MOL A   1       9.652  24.375   5.524  1.00  0.00     0.241 C 
ATOM     17  O   MOL A   1      10.070  23.340   6.049  1.00  0.00    -0.271 OA
ATOM     18  N   MOL A   1       9.353  24.477   4.232  1.00  0.00    -0.345 N 
ATOM     19  H13 MOL A   1       9.008  25.348   3.883  1.00  0.00     0.163 HD
BRANCH  18  20
ATOM     20  CA  MOL A   1       9.512  23.363   3.310  1.00  0.00     0.185 C 
BRANCH  20  21
ATOM     21  C   MOL A   1      10.879  23.324   2.652  1.00  0.00     0.196 C 
ATOM     22  OXT MOL A   1      11.292  24.362   2.096  1.00  0.00    -0.646 OA
ATOM     23  O   MOL A   1      11.525  22.255   2.702  1.00  0.00    -0.646 OA
ENDBRANCH  20  21
BRANCH  20  24
ATOM     24  CB  MOL A   1       8.422  23.432   2.249  1.00  0.00     0.040 C 
BRANCH  24  25
ATOM     25  CG  MOL A   1       7.568  24.674   2.483  1.00  0.00    -0.020 C 
ATOM     26  CD2 MOL A   1       6.097  24.323   2.319  1.00  0.00     0.009 C 
ATOM     27  CD1 MOL A   1       8.003  25.783   1.573  1.00  0.00     0.009 C 
ENDBRANCH  24  25
ENDBRANCH  20  24
ENDBRANCH  18  20
ENDBRANCH   1  16
BRANCH   1  28
ATOM     28  CB  MOL A   1       9.855  25.432   7.799  1.00  0.00     0.147 C 
BRANCH  28  29
ATOM     29  CG  MOL A   1       8.767  25.784   8.793  1.00  0.00     0.175 C 
ATOM     30  OD1 MOL A   1       8.744  26.947   9.235  1.00  0.00    -0.648 OA
ATOM     31  OD2 MOL A   1       7.914  24.921   9.099  1.00  0.00    -0.648 OA
ENDBRANCH  28  29
ENDBRANCH   1  28
TORSDOF 13
ENDMDL
MODEL 8
REMARK VINA RESULT:      -6.1      1.836      2.601
REMARK  13 active torsions:
REMARK  status: ('A' for Active; 'I' for Inactive)
REMARK    1  A    between atoms: N_1  and  CA_2 
REMARK    2  A    between atoms: CA_2  and  C_3 
REMARK    3  A    between atoms: CA_2  and  CB_5 
REMARK       I    between atoms: C_3  and  N_10 
REMARK    4  A    between atoms: CB_5  and  CG_6 
REMARK    5  A    between atoms: CG_6  and  CD_7 
REMARK    6  A    between atoms: N_10  and  CA_11 
REMARK    7  A    between atoms: CA_11  and  C_12 
REMARK    8  A    between atoms: CA_11  and  CB_14 
REMARK       I    between atoms: C_12  and  N_18 
REMARK    9  A    between atoms: CB_14  and  CG_15 
REMARK   10  A    between atoms: N_18  and  CA_19 
REMARK   11  A    between atoms: CA_19  and  C_20 
REMARK   12  A    between atoms: CA_19  and  CB_22 
REMARK   13  A    between atoms: CB_22  and  CG_23 
ROOT
ATOM      1  CA  MOL A   1       9.561  26.320   6.405  1.00  0.00     0.186 C 
ENDROOT
BRANCH   1   2
ATOM      2  N   MOL A   1       8.318  25.989   5.720  1.00  0.00    -0.345 N 
ATOM      3  C   MOL A   1       7.788  26.780   4.795  1.00  0.00     0.249 C 
ATOM      4  O   MOL A   1       8.278  27.869   4.477  1.00  0.00    -0.271 OA
ATOM      5  H9  MOL A   1       7.849  25.138   5.956  1.00  0.00     0.163 HD
BRANCH   3   6
ATOM      6  CA  MOL A   1       6.479  26.294   4.175  1.00  0.00     0.275 C 
BRANCH   6   7
ATOM      7  N   MOL A   1       5.346  27.146   4.626  1.00  0.00    -0.066 N 
ATOM      8  H1  MOL A   1       5.542  28.110   4.408  1.00  0.00     0.275 HD
ATOM      9  H2  MOL A   1       5.226  27.044   5.622  1.00  0.00     0.275 HD
ATOM     10  H3  MOL A   1       4.502  26.860   4.155  1.00  0.00     0.275 HD
ENDBRANCH   6   7
BRANCH   6  11
ATOM     11  CB  MOL A   1       6.570  26.283   2.647  1.00  0.00     0.053 C 
BRANCH  11  12
ATOM     12  CG  MOL A   1       5.224  26.281   1.949  1.00  0.00     0.115 C 
BRANCH  12  13
ATOM     13  CD  MOL A   1       5.312  26.665   0.485  1.00  0.00     0.172 C 
ATOM     14  OE1 MOL A   1       4.268  26.644  -0.207  1.00  0.00    -0.648 OA
ATOM     15  OE2 MOL A   1       6.429  27.003   0.033  1.00  0.00    -0.648 OA
ENDBRANCH  12  13
ENDBRANCH  11  12
ENDBRANCH   6  11
ENDBRANCH   3   6
ENDBRANCH   1   2
BRANCH   1  16
ATOM     16  C   MOL A   1      10.654  25.386   5.915  1.00  0.00     0.241 C 
ATOM     17  O   MOL A   1      11.839  25.727   5.951  1.00  0.00    -0.271 OA
ATOM     18  N   MOL A   1      10.244  24.190   5.502  1.00  0.00    -0.345 N 
ATOM     19  H13 MOL A   1       9.266  23.985   5.513  1.00  0.00     0.163 HD
BRANCH  18  20
ATOM     20  CA  MOL A   1      11.172  23.171   5.036  1.00  0.00     0.185 C 
BRANCH  20  21
ATOM     21  C   MOL A   1      10.875  22.696   3.625  1.00  0.00     0.196 C 
ATOM     22  OXT MOL A   1      11.353  23.349   2.674  1.00  0.00    -0.646 OA
ATOM     23  O   MOL A   1      10.169  21.675   3.485  1.00  0.00    -0.646 OA
ENDBRANCH  20  21
BRANCH  20  24
ATOM     24  CB  MOL A   1      11.149  21.994   6.001  1.00  0.00     0.040 C 
BRANCH  24  25
ATOM     25  CG  MOL A   1      12.579  21.612   6.365  1.00  0.00    -0.020 C 
ATOM     26  CD2 MOL A   1      13.413  22.870   6.561  1.00  0.00     0.009 C 
ATOM     27  CD1 MOL A   1      13.153  20.694   5.328  1.00  0.00     0.009 C 
ENDBRANCH  24  25
ENDBRANCH  20  24
ENDBRANCH  18  20
ENDBRANCH   1  16
BRANCH   1  28
ATOM     28  CB  MOL A   1       9.365  26.205   7.915  1.00  0.00     0.147 C 
BRANCH  28  29
ATOM     29  CG  MOL A   1       8.706  27.439   8.496  1.00  0.00     0.175 C 
ATOM     30  OD1 MOL A   1       8.780  28.495   7.842  1.00  0.00    -0.648 OA
ATOM     31  OD2 MOL A   1       8.079  27.349   9.576  1.00  0.00    -0.648 OA
ENDBRANCH  28  29
ENDBRANCH   1  28
TORSDOF 13
ENDMDL
MODEL 9
REMARK VINA RESULT:      -6.0      1.643      2.131
REMARK  13 active torsions:
REMARK  status: ('A' for Active; 'I' for Inactive)
REMARK    1  A    between atoms: N_1  and  CA_2 
REMARK    2  A    between atoms: CA_2  and  C_3 
REMARK    3  A    between atoms: CA_2  and  CB_5 
REMARK       I    between atoms: C_3  and  N_10 
REMARK    4  A    between atoms: CB_5  and  CG_6 
REMARK    5  A    between atoms: CG_6  and  CD_7 
REMARK    6  A    between atoms: N_10  and  CA_11 
REMARK    7  A    between atoms: CA_11  and  C_12 
REMARK    8  A    between atoms: CA_11  and  CB_14 
REMARK       I    between atoms: C_12  and  N_18 
REMARK    9  A    between atoms: CB_14  and  CG_15 
REMARK   10  A    between atoms: N_18  and  CA_19 
REMARK   11  A    between atoms: CA_19  and  C_20 
REMARK   12  A    between atoms: CA_19  and  CB_22 
REMARK   13  A    between atoms: CB_22  and  CG_23 
ROOT
ATOM      1  CA  MOL A   1       9.116  25.999   6.421  1.00  0.00     0.186 C 
ENDROOT
BRANCH   1   2
ATOM      2  N   MOL A   1       7.782  25.837   5.860  1.00  0.00    -0.345 N 
ATOM      3  C   MOL A   1       7.410  26.430   4.732  1.00  0.00     0.249 C 
ATOM      4  O   MOL A   1       8.145  27.195   4.099  1.00  0.00    -0.271 OA
ATOM      5  H9  MOL A   1       7.123  25.259   6.341  1.00  0.00     0.163 HD
BRANCH   3   6
ATOM      6  CA  MOL A   1       5.976  26.163   4.280  1.00  0.00     0.275 C 
BRANCH   6   7
ATOM      7  N   MOL A   1       5.225  27.441   4.160  1.00  0.00    -0.066 N 
ATOM      8  H1  MOL A   1       5.087  27.660   3.186  1.00  0.00     0.275 HD
ATOM      9  H2  MOL A   1       5.750  28.181   4.600  1.00  0.00     0.275 HD
ATOM     10  H3  MOL A   1       4.329  27.349   4.613  1.00  0.00     0.275 HD
ENDBRANCH   6   7
BRANCH   6  11
ATOM     11  CB  MOL A   1       5.955  25.400   2.953  1.00  0.00     0.053 C 
BRANCH  11  12
ATOM     12  CG  MOL A   1       5.365  26.186   1.799  1.00  0.00     0.115 C 
BRANCH  12  13
ATOM     13  CD  MOL A   1       6.389  26.548   0.741  1.00  0.00     0.172 C 
ATOM     14  OE1 MOL A   1       7.585  26.220   0.924  1.00  0.00    -0.648 OA
ATOM     15  OE2 MOL A   1       5.991  27.150  -0.282  1.00  0.00    -0.648 OA
ENDBRANCH  12  13
ENDBRANCH  11  12
ENDBRANCH   6  11
ENDBRANCH   3   6
ENDBRANCH   1   2
BRANCH   1  16
ATOM     16  C   MOL A   1       9.889  24.706   6.231  1.00  0.00     0.241 C 
ATOM     17  O   MOL A   1       9.322  23.684   5.838  1.00  0.00    -0.271 OA
ATOM     18  N   MOL A   1      11.195  24.778   6.470  1.00  0.00    -0.345 N 
ATOM     19  H13 MOL A   1      11.583  25.648   6.776  1.00  0.00     0.163 HD
BRANCH  18  20
ATOM     20  CA  MOL A   1      12.079  23.635   6.300  1.00  0.00     0.185 C 
BRANCH  20  21
ATOM     21  C   MOL A   1      13.161  23.555   7.361  1.00  0.00     0.196 C 
ATOM     22  OXT MOL A   1      12.827  23.724   8.552  1.00  0.00    -0.646 OA
ATOM     23  O   MOL A   1      14.332  23.324   6.992  1.00  0.00    -0.646 OA
ENDBRANCH  20  21
BRANCH  20  24
ATOM     24  CB  MOL A   1      12.706  23.690   4.914  1.00  0.00     0.040 C 
BRANCH  24  25
ATOM     25  CG  MOL A   1      12.247  22.482   4.104  1.00  0.00    -0.020 C 
ATOM     26  CD2 MOL A   1      13.438  21.584   3.803  1.00  0.00     0.009 C 
ATOM     27  CD1 MOL A   1      11.532  22.928   2.865  1.00  0.00     0.009 C 
ENDBRANCH  24  25
ENDBRANCH  20  24
ENDBRANCH  18  20
ENDBRANCH   1  16
BRANCH   1  28
ATOM     28  CB  MOL A   1       9.014  26.377   7.896  1.00  0.00     0.147 C 
BRANCH  28  29
ATOM     29  CG  MOL A   1       8.871  27.873   8.090  1.00  0.00     0.175 C 
ATOM     30  OD1 MOL A   1       9.439  28.384   9.074  1.00  0.00    -0.648 OA
ATOM     31  OD2 MOL A   1       8.236  28.544   7.246  1.00  0.00    -0.648 OA
ENDBRANCH  28  29
ENDBRANCH   1  28
TORSDOF 13
ENDMDL
