MODEL 1
REMARK VINA RESULT:      -5.8      0.478      0.478
REMARK  2 active torsions:
REMARK  status: ('A' for Active; 'I' for Inactive)
REMARK    1  A    between atoms: C1_1  and  C_7 
REMARK    2  A    between atoms: C_7  and  N1_8 
ROOT
ATOM      1  C   BAM A   1       8.479  -0.280  25.569  1.00  0.00     0.102 C 
ATOM      2  N2  BAM A   1       8.373  -1.368  24.853  1.00  0.00    -0.385 N 
ATOM      3  H8  BAM A   1       8.459  -1.320  23.828  1.00  0.00     0.157 HD
ATOM      4  H9  BAM A   1       8.203  -2.272  25.315  1.00  0.00     0.157 HD
ENDROOT
BRANCH   1   5
ATOM      5  C1  BAM A   1       8.712   0.943  24.911  1.00  0.00     0.007 A 
ATOM      6  C2  BAM A   1       8.353   2.179  25.489  1.00  0.00     0.015 A 
ATOM      7  C3  BAM A   1       8.584   3.382  24.826  1.00  0.00     0.001 A 
ATOM      8  C4  BAM A   1       9.176   3.377  23.571  1.00  0.00     0.000 A 
ATOM      9  C5  BAM A   1       9.541   2.184  22.977  1.00  0.00     0.001 A 
ATOM     10  C6  BAM A   1       9.310   0.992  23.639  1.00  0.00     0.015 A 
ENDBRANCH   1   5
BRANCH   1  11
ATOM     11  N1  BAM A   1       8.370  -0.325  26.880  1.00  0.00    -0.385 N 
ATOM     12  H6  BAM A   1       9.032  -0.890  27.432  1.00  0.00     0.157 HD
ATOM     13  H7  BAM A   1       7.624   0.203  27.354  1.00  0.00     0.157 HD
ENDBRANCH   1  11
TORSDOF 2
ENDMDL
MODEL 2
REMARK VINA RESULT:      -4.6      1.301      2.292
REMARK  2 active torsions:
REMARK  status: ('A' for Active; 'I' for Inactive)
REMARK    1  A    between atoms: C1_1  and  C_7 
REMARK    2  A    between atoms: C_7  and  N1_8 
ROOT
ATOM      1  C   BAM A   1       8.879   1.012  25.293  1.00  0.00     0.102 C 
ATOM      2  N2  BAM A   1       9.383   0.148  24.452  1.00  0.00    -0.385 N 
ATOM      3  H8  BAM A   1       9.843   0.475  23.591  1.00  0.00     0.157 HD
ATOM      4  H9  BAM A   1       9.318  -0.860  24.651  1.00  0.00     0.157 HD
ENDROOT
BRANCH   1   5
ATOM      5  C1  BAM A   1       8.982   2.384  24.996  1.00  0.00     0.007 A 
ATOM      6  C2  BAM A   1       9.934   2.879  24.080  1.00  0.00     0.015 A 
ATOM      7  C3  BAM A   1      10.029   4.240  23.798  1.00  0.00     0.001 A 
ATOM      8  C4  BAM A   1       9.176   5.137  24.426  1.00  0.00     0.000 A 
ATOM      9  C5  BAM A   1       8.231   4.685  25.327  1.00  0.00     0.001 A 
ATOM     10  C6  BAM A   1       8.140   3.334  25.603  1.00  0.00     0.015 A 
ENDBRANCH   1   5
BRANCH   1  11
ATOM     11  N1  BAM A   1       8.287   0.608  26.397  1.00  0.00    -0.385 N 
ATOM     12  H6  BAM A   1       8.524   1.047  27.299  1.00  0.00     0.157 HD
ATOM     13  H7  BAM A   1       7.587  -0.147  26.360  1.00  0.00     0.157 HD
ENDBRANCH   1  11
TORSDOF 2
ENDMDL
MODEL 3
REMARK VINA RESULT:      -3.9      3.231      4.186
REMARK  2 active torsions:
REMARK  status: ('A' for Active; 'I' for Inactive)
REMARK    1  A    between atoms: C1_1  and  C_7 
REMARK    2  A    between atoms: C_7  and  N1_8 
ROOT
ATOM      1  C   BAM A   1       9.689   3.137  23.457  1.00  0.00     0.102 C 
ATOM      2  N2  BAM A   1       9.207   1.933  23.297  1.00  0.00    -0.385 N 
ATOM      3  H8  BAM A   1       8.190   1.775  23.350  1.00  0.00     0.157 HD
ATOM      4  H9  BAM A   1       9.843   1.143  23.120  1.00  0.00     0.157 HD
ENDROOT
BRANCH   1   5
ATOM      5  C1  BAM A   1       8.795   4.198  23.697  1.00  0.00     0.007 A 
ATOM      6  C2  BAM A   1       7.836   4.143  24.730  1.00  0.00     0.015 A 
ATOM      7  C3  BAM A   1       6.954   5.198  24.955  1.00  0.00     0.001 A 
ATOM      8  C4  BAM A   1       7.010   6.329  24.153  1.00  0.00     0.000 A 
ATOM      9  C5  BAM A   1       7.939   6.415  23.133  1.00  0.00     0.001 A 
ATOM     10  C6  BAM A   1       8.812   5.366  22.914  1.00  0.00     0.015 A 
ENDBRANCH   1   5
BRANCH   1  11
ATOM     11  N1  BAM A   1      10.985   3.354  23.393  1.00  0.00    -0.385 N 
ATOM     12  H6  BAM A   1      11.614   2.620  23.034  1.00  0.00     0.157 HD
ATOM     13  H7  BAM A   1      11.373   4.257  23.701  1.00  0.00     0.157 HD
ENDBRANCH   1  11
TORSDOF 2
ENDMDL
MODEL 4
REMARK VINA RESULT:      -3.9      2.567      3.333
REMARK  2 active torsions:
REMARK  status: ('A' for Active; 'I' for Inactive)
REMARK    1  A    between atoms: C1_1  and  C_7 
REMARK    2  A    between atoms: C_7  and  N1_8 
ROOT
ATOM      1  C   BAM A   1       8.117   3.151  26.650  1.00  0.00     0.102 C 
ATOM      2  N2  BAM A   1       8.113   1.866  26.417  1.00  0.00    -0.385 N 
ATOM      3  H8  BAM A   1       8.482   1.503  25.527  1.00  0.00     0.157 HD
ATOM      4  H9  BAM A   1       7.741   1.216  27.123  1.00  0.00     0.157 HD
ENDROOT
BRANCH   1   5
ATOM      5  C1  BAM A   1       8.633   4.016  25.666  1.00  0.00     0.007 A 
ATOM      6  C2  BAM A   1       8.194   5.352  25.546  1.00  0.00     0.015 A 
ATOM      7  C3  BAM A   1       8.709   6.196  24.565  1.00  0.00     0.001 A 
ATOM      8  C4  BAM A   1       9.670   5.726  23.682  1.00  0.00     0.000 A 
ATOM      9  C5  BAM A   1      10.122   4.423  23.774  1.00  0.00     0.001 A 
ATOM     10  C6  BAM A   1       9.610   3.588  24.749  1.00  0.00     0.015 A 
ENDBRANCH   1   5
BRANCH   1  11
ATOM     11  N1  BAM A   1       7.648   3.629  27.783  1.00  0.00    -0.385 N 
ATOM     12  H6  BAM A   1       7.725   4.636  27.989  1.00  0.00     0.157 HD
ATOM     13  H7  BAM A   1       7.205   2.997  28.465  1.00  0.00     0.157 HD
ENDBRANCH   1  11
TORSDOF 2
ENDMDL
MODEL 5
REMARK VINA RESULT:      -3.5      3.382      4.584
REMARK  2 active torsions:
REMARK  status: ('A' for Active; 'I' for Inactive)
REMARK    1  A    between atoms: C1_1  and  C_7 
REMARK    2  A    between atoms: C_7  and  N1_8 
ROOT
ATOM      1  C   BAM A   1       9.939   3.815  23.622  1.00  0.00     0.102 C 
ATOM      2  N2  BAM A   1      11.228   4.014  23.545  1.00  0.00    -0.385 N 
ATOM      3  H8  BAM A   1      11.683   4.694  24.171  1.00  0.00     0.157 HD
ATOM      4  H9  BAM A   1      11.790   3.490  22.859  1.00  0.00     0.157 HD
ENDROOT
BRANCH   1   5
ATOM      5  C1  BAM A   1       9.197   4.545  24.569  1.00  0.00     0.007 A 
ATOM      6  C2  BAM A   1       9.014   5.940  24.457  1.00  0.00     0.015 A 
ATOM      7  C3  BAM A   1       8.281   6.652  25.404  1.00  0.00     0.001 A 
ATOM      8  C4  BAM A   1       7.717   5.987  26.484  1.00  0.00     0.000 A 
ATOM      9  C5  BAM A   1       7.876   4.621  26.622  1.00  0.00     0.001 A 
ATOM     10  C6  BAM A   1       8.604   3.919  25.680  1.00  0.00     0.015 A 
ENDBRANCH   1   5
BRANCH   1  11
ATOM     11  N1  BAM A   1       9.346   2.949  22.828  1.00  0.00    -0.385 N 
ATOM     12  H6  BAM A   1       8.693   3.278  22.102  1.00  0.00     0.157 HD
ATOM     13  H7  BAM A   1       9.533   1.941  22.933  1.00  0.00     0.157 HD
ENDBRANCH   1  11
TORSDOF 2
ENDMDL
MODEL 6
REMARK VINA RESULT:      -3.4      3.301      4.297
REMARK  2 active torsions:
REMARK  status: ('A' for Active; 'I' for Inactive)
REMARK    1  A    between atoms: C1_1  and  C_7 
REMARK    2  A    between atoms: C_7  and  N1_8 
ROOT
ATOM      1  C   BAM A   1       7.616   4.911  27.398  1.00  0.00     0.102 C 
ATOM      2  N2  BAM A   1       6.882   5.973  27.198  1.00  0.00    -0.385 N 
ATOM      3  H8  BAM A   1       6.679   6.286  26.238  1.00  0.00     0.157 HD
ATOM      4  H9  BAM A   1       6.506   6.497  28.001  1.00  0.00     0.157 HD
ENDROOT
BRANCH   1   5
ATOM      5  C1  BAM A   1       8.117   4.214  26.282  1.00  0.00     0.007 A 
ATOM      6  C2  BAM A   1       8.705   2.938  26.404  1.00  0.00     0.015 A 
ATOM      7  C3  BAM A   1       9.201   2.260  25.292  1.00  0.00     0.001 A 
ATOM      8  C4  BAM A   1       9.122   2.843  24.035  1.00  0.00     0.000 A 
ATOM      9  C5  BAM A   1       8.550   4.091  23.881  1.00  0.00     0.001 A 
ATOM     10  C6  BAM A   1       8.059   4.760  24.987  1.00  0.00     0.015 A 
ENDBRANCH   1   5
BRANCH   1  11
ATOM     11  N1  BAM A   1       7.884   4.500  28.619  1.00  0.00    -0.385 N 
ATOM     12  H6  BAM A   1       7.466   4.982  29.429  1.00  0.00     0.157 HD
ATOM     13  H7  BAM A   1       8.512   3.697  28.768  1.00  0.00     0.157 HD
ENDBRANCH   1  11
TORSDOF 2
ENDMDL
MODEL 7
REMARK VINA RESULT:      -3.3      2.905      3.903
REMARK  2 active torsions:
REMARK  status: ('A' for Active; 'I' for Inactive)
REMARK    1  A    between atoms: C1_1  and  C_7 
REMARK    2  A    between atoms: C_7  and  N1_8 
ROOT
ATOM      1  C   BAM A   1       9.059   3.180  25.152  1.00  0.00     0.102 C 
ATOM      2  N2  BAM A   1       8.914   2.025  24.560  1.00  0.00    -0.385 N 
ATOM      3  H8  BAM A   1       8.724   1.985  23.549  1.00  0.00     0.157 HD
ATOM      4  H9  BAM A   1       8.990   1.154  25.105  1.00  0.00     0.157 HD
ENDROOT
BRANCH   1   5
ATOM      5  C1  BAM A   1       8.950   4.354  24.383  1.00  0.00     0.007 A 
ATOM      6  C2  BAM A   1      10.065   5.178  24.122  1.00  0.00     0.015 A 
ATOM      7  C3  BAM A   1       9.944   6.341  23.363  1.00  0.00     0.001 A 
ATOM      8  C4  BAM A   1       8.707   6.705  22.850  1.00  0.00     0.000 A 
ATOM      9  C5  BAM A   1       7.596   5.918  23.086  1.00  0.00     0.001 A 
ATOM     10  C6  BAM A   1       7.721   4.766  23.839  1.00  0.00     0.015 A 
ENDBRANCH   1   5
BRANCH   1  11
ATOM     11  N1  BAM A   1       9.302   3.246  26.444  1.00  0.00    -0.385 N 
ATOM     12  H6  BAM A   1       8.590   3.627  27.084  1.00  0.00     0.157 HD
ATOM     13  H7  BAM A   1      10.204   2.917  26.817  1.00  0.00     0.157 HD
ENDBRANCH   1  11
TORSDOF 2
ENDMDL
