REMARK  2 active torsions:
REMARK  status: ('A' for Active; 'I' for Inactive)
REMARK    1  A    between atoms: C1_1  and  C_7 
REMARK    2  A    between atoms: C_7  and  N1_8 
ROOT
ATOM      1  C   BAM A   1       8.427  -0.495  25.637  1.00  0.00     0.102 C 
ATOM      2  N2  BAM A   1       8.718  -1.555  24.931  1.00  0.00    -0.385 N 
ATOM      3  H8  BAM A   1       9.192  -1.454  24.022  1.00  0.00     0.157 HD
ATOM      4  H9  BAM A   1       8.473  -2.491  25.283  1.00  0.00     0.157 HD
ENDROOT
BRANCH   1   5
ATOM      5  C1  BAM A   1       8.774   0.772  25.131  1.00  0.00     0.007 A 
ATOM      6  C2  BAM A   1       8.659   1.942  25.911  1.00  0.00     0.015 A 
ATOM      7  C3  BAM A   1       9.001   3.191  25.397  1.00  0.00     0.001 A 
ATOM      8  C4  BAM A   1       9.463   3.299  24.093  1.00  0.00     0.000 A 
ATOM      9  C5  BAM A   1       9.589   2.172  23.303  1.00  0.00     0.001 A 
ATOM     10  C6  BAM A   1       9.249   0.935  23.817  1.00  0.00     0.015 A 
ENDBRANCH   1   5
BRANCH   1  11
ATOM     11  N1  BAM A   1       7.821  -0.609  26.800  1.00  0.00    -0.385 N 
ATOM     12  H6  BAM A   1       7.571  -1.541  27.162  1.00  0.00     0.157 HD
ATOM     13  H7  BAM A   1       7.596   0.233  27.349  1.00  0.00     0.157 HD
ENDBRANCH   1  11
TORSDOF 2
