MODEL 1
REMARK VINA RESULT:     -12.8      0.292      0.292
REMARK  2 active torsions:
REMARK  status: ('A' for Active; 'I' for Inactive)
REMARK    1  A    between atoms: N2_3  and  C14_17 
REMARK    2  A    between atoms: C8_11  and  C18_21 
ROOT
ATOM      1  N1  HUX A   1       5.890  69.738  65.266  1.00  0.00    -0.358 N 
ATOM      2  H1  HUX A   1       6.821  69.845  64.864  1.00  0.00     0.166 HD
ATOM      3  C1  HUX A   1       6.596  70.836  68.743  1.00  0.00     0.036 A 
ATOM      4  C2  HUX A   1       6.764  70.497  67.307  1.00  0.00     0.054 A 
ATOM      5  C3  HUX A   1       5.618  70.079  66.659  1.00  0.00     0.046 A 
ATOM      6  C4  HUX A   1       4.856  69.273  64.535  1.00  0.00     0.019 A 
ATOM      7  C5  HUX A   1       5.272  68.898  63.011  1.00  0.00     0.066 C 
ATOM      8  C6  HUX A   1       4.282  67.914  62.366  1.00  0.00     0.014 C 
ATOM      9  C7  HUX A   1       4.238  66.427  63.130  1.00  0.00    -0.019 C 
ATOM     10  C8  HUX A   1       3.387  66.036  64.081  1.00  0.00    -0.083 C 
ATOM     11  C9  HUX A   1       2.337  67.044  64.492  1.00  0.00     0.043 C 
ATOM     12  C11 HUX A   1       2.490  68.485  64.027  1.00  0.00     0.027 C 
ATOM     13  C12 HUX A   1       2.880  68.477  62.484  1.00  0.00     0.018 C 
ATOM     14  C13 HUX A   1       3.553  69.077  64.959  1.00  0.00    -0.004 A 
ATOM     15  C14 HUX A   1       3.278  69.451  66.389  1.00  0.00     0.047 A 
ATOM     16  C15 HUX A   1       4.352  69.936  67.174  1.00  0.00     0.018 A 
ATOM     17  C16 HUX A   1       4.139  70.304  68.622  1.00  0.00     0.018 A 
ATOM     18  C17 HUX A   1       5.211  70.716  69.323  1.00  0.00     0.025 A 
ATOM     19 CL1  HUX A   1       7.857  71.296  69.726  1.00  0.00    -0.084 Cl
ENDROOT
BRANCH  15  20
ATOM     20  N2  HUX A   1       1.989  69.261  66.853  1.00  0.00    -0.398 N 
ATOM     21  H1  HUX A   1       1.806  68.578  67.601  1.00  0.00     0.156 HD
ATOM     22  H2  HUX A   1       1.211  69.804  66.450  1.00  0.00     0.156 HD
ENDBRANCH  15  20
BRANCH  10  23
ATOM     23  C18 HUX A   1       3.544  64.588  64.691  1.00  0.00     0.029 C 
ATOM     24  C10 HUX A   1       4.564  63.591  64.095  1.00  0.00     0.010 C 
ENDBRANCH  10  23
TORSDOF 2
ENDMDL
