MODEL 1
REMARK VINA RESULT:     -11.9      0.441      0.903
REMARK  13 active torsions:
REMARK  status: ('A' for Active; 'I' for Inactive)
REMARK    1  A    between atoms: N01_1  and  C08_8 
REMARK    2  A    between atoms: N03_3  and  C23_23 
REMARK    3  A    between atoms: C04_4  and  C41_41 
REMARK    4  A    between atoms: C05_5  and  O30_30 
REMARK    5  A    between atoms: C06_6  and  O31_31 
REMARK    6  A    between atoms: C07_7  and  C32_32 
REMARK    7  A    between atoms: C08_8  and  C09_9 
REMARK    8  A    between atoms: C11_11  and  C51_42 
REMARK    9  A    between atoms: O16_16  and  C41_41 
REMARK   10  A    between atoms: O16_16  and  C17_17 
REMARK   11  A    between atoms: C23_23  and  C24_24 
REMARK   12  A    between atoms: C32_32  and  O33_33 
REMARK   13  A    between atoms: O33_33  and  C34_34 
REMARK       I    between atoms: C51_42  and  N53_44 
ROOT
ATOM      1  N01 NM1 A   1      11.356  23.631   6.017  1.00  0.00    -0.281 N 
ATOM      2  S02 NM1 A   1      11.784  22.118   6.526  1.00  0.00     0.320 S 
ATOM      3  N03 NM1 A   1      13.416  22.197   6.355  1.00  0.00    -0.281 N 
ATOM      4  C04 NM1 A   1      13.887  22.136   4.952  1.00  0.00     0.153 C 
ATOM      5  C05 NM1 A   1      14.092  23.521   4.317  1.00  0.00     0.174 C 
ATOM      6  C06 NM1 A   1      13.108  24.598   4.760  1.00  0.00     0.174 C 
ATOM      7  C07 NM1 A   1      11.615  24.233   4.698  1.00  0.00     0.153 C 
ATOM      8  O15 NM1 A   1      11.238  21.081   5.651  1.00  0.00    -0.183 OA
ATOM      9  O40 NM1 A   1      11.508  22.008   7.958  1.00  0.00    -0.183 OA
ENDROOT
BRANCH   1  10
ATOM     10  C08 NM1 A   1      10.160  24.115   6.554  1.00  0.00     0.176 C 
BRANCH  10  11
ATOM     11  C09 NM1 A   1       9.866  25.378   7.256  1.00  0.00    -0.039 A 
ATOM     12  C14 NM1 A   1      10.698  25.765   8.358  1.00  0.00     0.009 A 
ATOM     13  C13 NM1 A   1      10.464  26.987   9.047  1.00  0.00     0.002 A 
ATOM     14  C12 NM1 A   1       9.399  27.825   8.627  1.00  0.00     0.017 A 
ATOM     15  C11 NM1 A   1       8.564  27.437   7.517  1.00  0.00     0.032 A 
ATOM     16  C10 NM1 A   1       8.804  26.214   6.839  1.00  0.00     0.026 A 
BRANCH  15  17
ATOM     17  C51 NM1 A   1       7.457  28.333   7.063  1.00  0.00     0.251 C 
ATOM     18  N53 NM1 A   1       6.345  27.791   6.449  1.00  0.00    -0.361 N 
ATOM     19  C54 NM1 A   1       5.290  28.703   6.057  1.00  0.00     0.149 C 
ATOM     20  H34 NM1 A   1       6.271  26.808   6.282  1.00  0.00     0.162 HD
ATOM     21  O52 NM1 A   1       7.556  29.571   7.264  1.00  0.00    -0.268 OA
ENDBRANCH  15  17
ENDBRANCH  10  11
ENDBRANCH   1  10
BRANCH   7  22
ATOM     22  C32 NM1 A   1      11.008  23.409   3.529  1.00  0.00     0.204 C 
BRANCH  22  23
ATOM     23  O33 NM1 A   1      10.460  24.352   2.567  1.00  0.00    -0.349 OA
BRANCH  23  24
ATOM     24  C34 NM1 A   1       9.142  24.741   2.577  1.00  0.00     0.068 A 
ATOM     25  C39 NM1 A   1       8.189  23.957   3.296  1.00  0.00     0.037 A 
ATOM     26  C38 NM1 A   1       6.808  24.336   3.342  1.00  0.00     0.003 A 
ATOM     27  C37 NM1 A   1       6.371  25.505   2.660  1.00  0.00     0.000 A 
ATOM     28  C36 NM1 A   1       7.304  26.302   1.930  1.00  0.00     0.003 A 
ATOM     29  C35 NM1 A   1       8.678  25.924   1.892  1.00  0.00     0.037 A 
ENDBRANCH  23  24
ENDBRANCH  22  23
ENDBRANCH   7  22
BRANCH   6  30
ATOM     30  O31 NM1 A   1      13.371  25.756   3.977  1.00  0.00    -0.391 OA
ATOM     31  H24 NM1 A   1      12.900  26.496   4.340  1.00  0.00     0.210 HD
ENDBRANCH   6  30
BRANCH   3  32
ATOM     32  C23 NM1 A   1      14.220  22.789   7.480  1.00  0.00     0.176 C 
BRANCH  32  33
ATOM     33  C24 NM1 A   1      15.320  21.986   8.134  1.00  0.00    -0.040 A 
ATOM     34  C29 NM1 A   1      16.700  22.327   7.914  1.00  0.00     0.009 A 
ATOM     35  C28 NM1 A   1      17.746  21.566   8.524  1.00  0.00     0.001 A 
ATOM     36  C27 NM1 A   1      17.412  20.451   9.364  1.00  0.00     0.000 A 
ATOM     37  C26 NM1 A   1      16.036  20.107   9.591  1.00  0.00     0.001 A 
ATOM     38  C25 NM1 A   1      14.996  20.877   8.975  1.00  0.00     0.009 A 
ENDBRANCH  32  33
ENDBRANCH   3  32
BRANCH   5  39
ATOM     39  O30 NM1 A   1      15.383  24.007   4.619  1.00  0.00    -0.391 OA
ATOM     40  H23 NM1 A   1      15.517  24.839   4.180  1.00  0.00     0.210 HD
ENDBRANCH   5  39
BRANCH   4  41
ATOM     41  C41 NM1 A   1      15.119  21.237   4.794  1.00  0.00     0.204 C 
BRANCH  41  42
ATOM     42  O16 NM1 A   1      15.023  20.428   3.597  1.00  0.00    -0.349 OA
BRANCH  42  43
ATOM     43  C17 NM1 A   1      15.983  19.456   3.345  1.00  0.00     0.068 A 
ATOM     44  C22 NM1 A   1      16.984  19.168   4.327  1.00  0.00     0.037 A 
ATOM     45  C21 NM1 A   1      17.985  18.173   4.086  1.00  0.00     0.003 A 
ATOM     46  C20 NM1 A   1      17.991  17.451   2.852  1.00  0.00     0.000 A 
ATOM     47  C19 NM1 A   1      17.000  17.719   1.857  1.00  0.00     0.003 A 
ATOM     48  C18 NM1 A   1      16.005  18.717   2.105  1.00  0.00     0.037 A 
ENDBRANCH  42  43
ENDBRANCH  41  42
ENDBRANCH   4  41
TORSDOF 13
ENDMDL
MODEL 2
REMARK VINA RESULT:     -10.5      1.087      1.728
REMARK  13 active torsions:
REMARK  status: ('A' for Active; 'I' for Inactive)
REMARK    1  A    between atoms: N01_1  and  C08_8 
REMARK    2  A    between atoms: N03_3  and  C23_23 
REMARK    3  A    between atoms: C04_4  and  C41_41 
REMARK    4  A    between atoms: C05_5  and  O30_30 
REMARK    5  A    between atoms: C06_6  and  O31_31 
REMARK    6  A    between atoms: C07_7  and  C32_32 
REMARK    7  A    between atoms: C08_8  and  C09_9 
REMARK    8  A    between atoms: C11_11  and  C51_42 
REMARK    9  A    between atoms: O16_16  and  C41_41 
REMARK   10  A    between atoms: O16_16  and  C17_17 
REMARK   11  A    between atoms: C23_23  and  C24_24 
REMARK   12  A    between atoms: C32_32  and  O33_33 
REMARK   13  A    between atoms: O33_33  and  C34_34 
REMARK       I    between atoms: C51_42  and  N53_44 
ROOT
ATOM      1  N01 NM1 A   1      11.298  23.618   5.926  1.00  0.00    -0.281 N 
ATOM      2  S02 NM1 A   1      11.751  22.117   6.447  1.00  0.00     0.320 S 
ATOM      3  N03 NM1 A   1      13.387  22.246   6.339  1.00  0.00    -0.281 N 
ATOM      4  C04 NM1 A   1      13.913  22.205   4.955  1.00  0.00     0.153 C 
ATOM      5  C05 NM1 A   1      14.099  23.598   4.332  1.00  0.00     0.174 C 
ATOM      6  C06 NM1 A   1      13.067  24.644   4.741  1.00  0.00     0.174 C 
ATOM      7  C07 NM1 A   1      11.589  24.234   4.620  1.00  0.00     0.153 C 
ATOM      8  O15 NM1 A   1      11.271  21.068   5.548  1.00  0.00    -0.183 OA
ATOM      9  O40 NM1 A   1      11.425  21.993   7.867  1.00  0.00    -0.183 OA
ENDROOT
BRANCH   1  10
ATOM     10  C08 NM1 A   1      10.068  24.064   6.418  1.00  0.00     0.176 C 
BRANCH  10  11
ATOM     11  C09 NM1 A   1       9.485  25.417   6.458  1.00  0.00    -0.039 A 
ATOM     12  C14 NM1 A   1       9.163  26.067   5.221  1.00  0.00     0.009 A 
ATOM     13  C13 NM1 A   1       8.577  27.362   5.214  1.00  0.00     0.002 A 
ATOM     14  C12 NM1 A   1       8.307  28.006   6.450  1.00  0.00     0.017 A 
ATOM     15  C11 NM1 A   1       8.627  27.351   7.694  1.00  0.00     0.032 A 
ATOM     16  C10 NM1 A   1       9.215  26.060   7.689  1.00  0.00     0.026 A 
BRANCH  15  17
ATOM     17  C51 NM1 A   1       8.320  28.022   8.995  1.00  0.00     0.251 C 
ATOM     18  N53 NM1 A   1       9.336  28.255   9.902  1.00  0.00    -0.361 N 
ATOM     19  C54 NM1 A   1       8.986  28.936  11.132  1.00  0.00     0.149 C 
ATOM     20  H34 NM1 A   1      10.274  27.966   9.716  1.00  0.00     0.162 HD
ATOM     21  O52 NM1 A   1       7.137  28.376   9.231  1.00  0.00    -0.268 OA
ENDBRANCH  15  17
ENDBRANCH  10  11
ENDBRANCH   1  10
BRANCH   7  22
ATOM     22  C32 NM1 A   1      11.053  23.397   3.426  1.00  0.00     0.204 C 
BRANCH  22  23
ATOM     23  O33 NM1 A   1       9.614  23.272   3.590  1.00  0.00    -0.349 OA
BRANCH  23  24
ATOM     24  C34 NM1 A   1       8.719  24.094   2.948  1.00  0.00     0.068 A 
ATOM     25  C39 NM1 A   1       9.212  25.151   2.123  1.00  0.00     0.037 A 
ATOM     26  C38 NM1 A   1       8.312  26.021   1.426  1.00  0.00     0.003 A 
ATOM     27  C37 NM1 A   1       6.907  25.841   1.557  1.00  0.00     0.000 A 
ATOM     28  C36 NM1 A   1       6.391  24.796   2.380  1.00  0.00     0.003 A 
ATOM     29  C35 NM1 A   1       7.290  23.928   3.067  1.00  0.00     0.037 A 
ENDBRANCH  23  24
ENDBRANCH  22  23
ENDBRANCH   7  22
BRANCH   6  30
ATOM     30  O31 NM1 A   1      13.325  25.811   3.971  1.00  0.00    -0.391 OA
ATOM     31  H24 NM1 A   1      13.261  26.577   4.530  1.00  0.00     0.210 HD
ENDBRANCH   6  30
BRANCH   3  32
ATOM     32  C23 NM1 A   1      14.128  22.857   7.496  1.00  0.00     0.176 C 
BRANCH  32  33
ATOM     33  C24 NM1 A   1      15.220  22.082   8.195  1.00  0.00    -0.040 A 
ATOM     34  C29 NM1 A   1      16.602  22.425   7.988  1.00  0.00     0.009 A 
ATOM     35  C28 NM1 A   1      17.642  21.691   8.640  1.00  0.00     0.001 A 
ATOM     36  C27 NM1 A   1      17.299  20.600   9.509  1.00  0.00     0.000 A 
ATOM     37  C26 NM1 A   1      15.922  20.254   9.722  1.00  0.00     0.001 A 
ATOM     38  C25 NM1 A   1      14.888  20.997   9.064  1.00  0.00     0.009 A 
ENDBRANCH  32  33
ENDBRANCH   3  32
BRANCH   5  39
ATOM     39  O30 NM1 A   1      15.362  24.122   4.685  1.00  0.00    -0.391 OA
ATOM     40  H23 NM1 A   1      16.002  23.420   4.697  1.00  0.00     0.210 HD
ENDBRANCH   5  39
BRANCH   4  41
ATOM     41  C41 NM1 A   1      15.176  21.345   4.842  1.00  0.00     0.204 C 
BRANCH  41  42
ATOM     42  O16 NM1 A   1      14.859  20.014   4.365  1.00  0.00    -0.349 OA
BRANCH  42  43
ATOM     43  C17 NM1 A   1      15.858  19.228   3.806  1.00  0.00     0.068 A 
ATOM     44  C22 NM1 A   1      15.824  18.912   2.410  1.00  0.00     0.037 A 
ATOM     45  C21 NM1 A   1      16.842  18.099   1.815  1.00  0.00     0.003 A 
ATOM     46  C20 NM1 A   1      17.912  17.594   2.618  1.00  0.00     0.000 A 
ATOM     47  C19 NM1 A   1      17.969  17.898   4.014  1.00  0.00     0.003 A 
ATOM     48  C18 NM1 A   1      16.946  18.708   4.601  1.00  0.00     0.037 A 
ENDBRANCH  42  43
ENDBRANCH  41  42
ENDBRANCH   4  41
TORSDOF 13
ENDMDL
