MODEL 1
REMARK VINA RESULT:     -10.5      0.202      0.202
REMARK  1 active torsions:
REMARK  status: ('A' for Active; 'I' for Inactive)
REMARK    1  A    between atoms: C12_14  and  N2_15 
ROOT
ATOM      1  C1  HUP A   1       0.634  68.950  60.774  1.00  0.00     0.245 A 
ATOM      2  O1  HUP A   1       0.149  69.448  59.723  1.00  0.00    -0.268 OA
ATOM      3  N1  HUP A   1       1.938  68.449  60.772  1.00  0.00    -0.327 N 
ATOM      4  C2  HUP A   1      -0.084  68.852  62.037  1.00  0.00     0.075 A 
ATOM      5  C3  HUP A   1       0.516  68.287  63.144  1.00  0.00     0.017 A 
ATOM      6  C4  HUP A   1       1.872  67.768  63.125  1.00  0.00     0.005 A 
ATOM      7  C5  HUP A   1       2.583  67.870  61.886  1.00  0.00     0.022 A 
ATOM      8  C6  HUP A   1       3.998  67.385  61.677  1.00  0.00     0.070 C 
ATOM      9  C7  HUP A   1       4.666  66.797  62.998  1.00  0.00     0.045 C 
ATOM     10  C8  HUP A   1       5.339  67.895  63.847  1.00  0.00    -0.015 C 
ATOM     11  C9  HUP A   1       4.497  63.715  63.734  1.00  0.00     0.036 C 
ATOM     12  C10 HUP A   1       3.560  64.799  64.175  1.00  0.00    -0.025 C 
ATOM     13  C11 HUP A   1       3.603  66.089  63.869  1.00  0.00    -0.036 C 
ATOM     14  C12 HUP A   1       2.565  67.107  64.396  1.00  0.00     0.179 C 
ATOM     15  C13 HUP A   1       3.271  68.193  65.259  1.00  0.00     0.082 C 
ATOM     16  C14 HUP A   1       4.701  68.526  64.873  1.00  0.00    -0.084 C 
ATOM     17  C15 HUP A   1       5.344  69.599  65.726  1.00  0.00     0.043 C 
ATOM     18  H1  HUP A   1       2.454  68.505  59.917  1.00  0.00     0.169 HD
ENDROOT
BRANCH  14  19
ATOM     19  N2  HUP A   1       1.533  66.441  65.240  1.00  0.00    -0.062 N 
ATOM     20  H12 HUP A   1       1.572  66.814  66.176  1.00  0.00     0.276 HD
ATOM     21  H13 HUP A   1       1.708  65.449  65.265  1.00  0.00     0.276 HD
ATOM     22  H14 HUP A   1       0.619  66.610  64.850  1.00  0.00     0.276 HD
ENDBRANCH  14  19
TORSDOF 1
ENDMDL
MODEL 2
REMARK VINA RESULT:      -9.6      2.694      4.749
REMARK  1 active torsions:
REMARK  status: ('A' for Active; 'I' for Inactive)
REMARK    1  A    between atoms: C12_14  and  N2_15 
ROOT
ATOM      1  C1  HUP A   1       4.575  63.200  63.217  1.00  0.00     0.245 A 
ATOM      2  O1  HUP A   1       5.052  62.174  62.662  1.00  0.00    -0.268 OA
ATOM      3  N1  HUP A   1       4.819  64.464  62.676  1.00  0.00    -0.327 N 
ATOM      4  C2  HUP A   1       3.758  63.170  64.422  1.00  0.00     0.075 A 
ATOM      5  C3  HUP A   1       3.276  64.340  64.974  1.00  0.00     0.017 A 
ATOM      6  C4  HUP A   1       3.542  65.647  64.400  1.00  0.00     0.005 A 
ATOM      7  C5  HUP A   1       4.338  65.678  63.211  1.00  0.00     0.022 A 
ATOM      8  C6  HUP A   1       4.717  66.943  62.476  1.00  0.00     0.070 C 
ATOM      9  C7  HUP A   1       4.087  68.258  63.116  1.00  0.00     0.045 C 
ATOM     10  C8  HUP A   1       2.676  68.554  62.568  1.00  0.00    -0.015 C 
ATOM     11  C9  HUP A   1       5.621  69.951  65.320  1.00  0.00     0.036 C 
ATOM     12  C10 HUP A   1       4.635  68.846  65.557  1.00  0.00    -0.025 C 
ATOM     13  C11 HUP A   1       3.994  68.117  64.653  1.00  0.00    -0.036 C 
ATOM     14  C12 HUP A   1       2.996  66.999  65.038  1.00  0.00     0.179 C 
ATOM     15  C13 HUP A   1       1.580  67.332  64.482  1.00  0.00     0.082 C 
ATOM     16  C14 HUP A   1       1.540  68.131  63.192  1.00  0.00    -0.084 C 
ATOM     17  C15 HUP A   1       0.145  68.417  62.678  1.00  0.00     0.043 C 
ATOM     18  H1  HUP A   1       5.377  64.513  61.847  1.00  0.00     0.169 HD
ENDROOT
BRANCH  14  19
ATOM     19  N2  HUP A   1       2.892  66.850  66.516  1.00  0.00    -0.062 N 
ATOM     20  H12 HUP A   1       2.496  67.689  66.912  1.00  0.00     0.276 HD
ATOM     21  H13 HUP A   1       3.809  66.697  66.904  1.00  0.00     0.276 HD
ATOM     22  H14 HUP A   1       2.300  66.065  66.735  1.00  0.00     0.276 HD
ENDBRANCH  14  19
TORSDOF 1
ENDMDL
