REMARK  1 active torsions:
REMARK  status: ('A' for Active; 'I' for Inactive)
REMARK    1  A    between atoms: C12_14  and  N2_15 
ROOT
ATOM      1  C1  HUP A   1       0.726  68.848  60.595  1.00  0.00     0.245 A 
ATOM      2  O1  HUP A   1       0.265  69.331  59.526  1.00  0.00    -0.268 OA
ATOM      3  N1  HUP A   1       2.007  68.291  60.614  1.00  0.00    -0.327 N 
ATOM      4  C2  HUP A   1       0.003  68.825  61.859  1.00  0.00     0.075 A 
ATOM      5  C3  HUP A   1       0.576  68.272  62.986  1.00  0.00     0.017 A 
ATOM      6  C4  HUP A   1       1.908  67.694  62.988  1.00  0.00     0.005 A 
ATOM      7  C5  HUP A   1       2.624  67.723  61.749  1.00  0.00     0.022 A 
ATOM      8  C6  HUP A   1       4.017  67.169  61.560  1.00  0.00     0.070 C 
ATOM      9  C7  HUP A   1       4.657  66.598  62.902  1.00  0.00     0.045 C 
ATOM     10  C8  HUP A   1       5.376  67.694  63.716  1.00  0.00    -0.015 C 
ATOM     11  C9  HUP A   1       4.352  63.553  63.742  1.00  0.00     0.036 C 
ATOM     12  C10 HUP A   1       3.463  64.691  64.143  1.00  0.00    -0.025 C 
ATOM     13  C11 HUP A   1       3.563  65.967  63.794  1.00  0.00    -0.036 C 
ATOM     14  C12 HUP A   1       2.569  67.047  64.283  1.00  0.00     0.179 C 
ATOM     15  C13 HUP A   1       3.321  68.130  65.111  1.00  0.00     0.082 C 
ATOM     16  C14 HUP A   1       4.765  68.387  64.718  1.00  0.00    -0.084 C 
ATOM     17  C15 HUP A   1       5.453  69.459  65.536  1.00  0.00     0.043 C 
ATOM     18  H1  HUP A   1       2.526  68.295  59.759  1.00  0.00     0.169 HD
ENDROOT
BRANCH  14  19
ATOM     19  N2  HUP A   1       1.508  66.456  65.146  1.00  0.00    -0.062 N 
ATOM     20  H12 HUP A   1       0.877  67.182  65.448  1.00  0.00     0.276 HD
ATOM     21  H13 HUP A   1       1.932  66.023  65.951  1.00  0.00     0.276 HD
ATOM     22  H14 HUP A   1       0.996  65.763  64.623  1.00  0.00     0.276 HD
ENDBRANCH  14  19
TORSDOF 1
