MODEL 1
REMARK VINA RESULT:     -11.2      2.434      4.423
REMARK  0 active torsions:
REMARK  status: ('A' for Active; 'I' for Inactive)
ROOT
ATOM      1  C1  HUB A   1       4.564  63.730  63.335  1.00  0.00     0.245 A 
ATOM      2  O1  HUB A   1       4.938  62.613  62.972  1.00  0.00    -0.268 OA
ATOM      3  N1  HUB A   1       4.913  64.854  62.590  1.00  0.00    -0.327 N 
ATOM      4  C2  HUB A   1       3.762  63.963  64.523  1.00  0.00     0.075 A 
ATOM      5  C3  HUB A   1       3.381  65.236  64.865  1.00  0.00     0.017 A 
ATOM      6  C4  HUB A   1       3.738  66.396  64.086  1.00  0.00     0.001 A 
ATOM      7  C5  HUB A   1       4.549  66.171  62.920  1.00  0.00     0.021 A 
ATOM      8  C6  HUB A   1       5.033  67.276  62.001  1.00  0.00     0.066 C 
ATOM      9  C7  HUB A   1       4.658  68.752  62.517  1.00  0.00     0.021 C 
ATOM     10  C8  HUB A   1       5.707  69.261  63.540  1.00  0.00    -0.019 C 
ATOM     11  C9  HUB A   1       0.804  68.298  62.963  1.00  0.00     0.028 C 
ATOM     12  C10 HUB A   1       2.170  68.292  62.256  1.00  0.00     0.010 C 
ATOM     13  C11 HUB A   1       3.276  68.772  63.213  1.00  0.00     0.035 C 
ATOM     14  C12 HUB A   1       3.287  67.886  64.497  1.00  0.00     0.162 C 
ATOM     15  N2  HUB A   1       1.926  67.888  65.153  1.00  0.00    -0.061 N 
ATOM     16  C13 HUB A   1       4.341  68.422  65.519  1.00  0.00     0.078 C 
ATOM     17  C14 HUB A   1       5.556  69.110  64.907  1.00  0.00    -0.084 C 
ATOM     18  C15 HUB A   1       6.553  69.606  65.923  1.00  0.00     0.043 C 
ATOM     19  C90 HUB A   1       0.785  67.410  64.197  1.00  0.00     0.233 C 
ATOM     20  H1  HUB A   1       5.459  64.714  61.764  1.00  0.00     0.169 HD
ATOM     21  H13 HUB A   1       1.718  68.827  65.457  1.00  0.00     0.278 HD
ATOM     22  H14 HUB A   1       1.954  67.275  65.952  1.00  0.00     0.278 HD
ENDROOT
TORSDOF 0
ENDMDL
MODEL 2
REMARK VINA RESULT:     -10.5      0.266      0.266
REMARK  0 active torsions:
REMARK  status: ('A' for Active; 'I' for Inactive)
ROOT
ATOM      1  C1  HUB A   1       1.176  68.750  61.398  1.00  0.00     0.245 A 
ATOM      2  O1  HUB A   1       0.544  69.178  60.429  1.00  0.00    -0.268 OA
ATOM      3  N1  HUB A   1       2.456  68.233  61.216  1.00  0.00    -0.327 N 
ATOM      4  C2  HUB A   1       0.661  68.746  62.756  1.00  0.00     0.075 A 
ATOM      5  C3  HUB A   1       1.423  68.255  63.785  1.00  0.00     0.017 A 
ATOM      6  C4  HUB A   1       2.751  67.727  63.594  1.00  0.00     0.001 A 
ATOM      7  C5  HUB A   1       3.256  67.710  62.248  1.00  0.00     0.021 A 
ATOM      8  C6  HUB A   1       4.621  67.173  61.863  1.00  0.00     0.066 C 
ATOM      9  C7  HUB A   1       5.416  66.501  63.089  1.00  0.00     0.021 C 
ATOM     10  C8  HUB A   1       4.985  65.025  63.284  1.00  0.00    -0.019 C 
ATOM     11  C9  HUB A   1       5.267  69.466  65.628  1.00  0.00     0.028 C 
ATOM     12  C10 HUB A   1       5.560  68.728  64.311  1.00  0.00     0.010 C 
ATOM     13  C11 HUB A   1       5.143  67.250  64.415  1.00  0.00     0.035 C 
ATOM     14  C12 HUB A   1       3.637  67.150  64.809  1.00  0.00     0.162 C 
ATOM     15  N2  HUB A   1       3.374  67.908  66.090  1.00  0.00    -0.061 N 
ATOM     16  C13 HUB A   1       3.224  65.657  65.013  1.00  0.00     0.078 C 
ATOM     17  C14 HUB A   1       3.986  64.646  64.164  1.00  0.00    -0.084 C 
ATOM     18  C15 HUB A   1       3.556  63.217  64.382  1.00  0.00     0.043 C 
ATOM     19  C90 HUB A   1       3.796  69.411  66.009  1.00  0.00     0.233 C 
ATOM     20  H1  HUB A   1       2.832  68.232  60.289  1.00  0.00     0.169 HD
ATOM     21  H13 HUB A   1       3.892  67.469  66.834  1.00  0.00     0.278 HD
ATOM     22  H14 HUB A   1       2.388  67.862  66.293  1.00  0.00     0.278 HD
ENDROOT
TORSDOF 0
ENDMDL
MODEL 3
REMARK VINA RESULT:      -8.7      1.861      2.318
REMARK  0 active torsions:
REMARK  status: ('A' for Active; 'I' for Inactive)
ROOT
ATOM      1  C1  HUB A   1       0.364  68.237  64.915  1.00  0.00     0.245 A 
ATOM      2  O1  HUB A   1      -0.837  68.513  64.933  1.00  0.00    -0.268 OA
ATOM      3  N1  HUB A   1       1.024  68.092  63.698  1.00  0.00    -0.327 N 
ATOM      4  C2  HUB A   1       1.163  68.047  66.113  1.00  0.00     0.075 A 
ATOM      5  C3  HUB A   1       2.497  67.743  66.017  1.00  0.00     0.017 A 
ATOM      6  C4  HUB A   1       3.179  67.600  64.754  1.00  0.00     0.001 A 
ATOM      7  C5  HUB A   1       2.386  67.768  63.566  1.00  0.00     0.021 A 
ATOM      8  C6  HUB A   1       2.933  67.633  62.158  1.00  0.00     0.066 C 
ATOM      9  C7  HUB A   1       4.469  67.158  62.108  1.00  0.00     0.021 C 
ATOM     10  C8  HUB A   1       4.573  65.614  62.205  1.00  0.00    -0.019 C 
ATOM     11  C9  HUB A   1       6.039  69.880  64.428  1.00  0.00     0.028 C 
ATOM     12  C10 HUB A   1       5.244  69.296  63.249  1.00  0.00     0.010 C 
ATOM     13  C11 HUB A   1       5.282  67.757  63.281  1.00  0.00     0.035 C 
ATOM     14  C12 HUB A   1       4.745  67.241  64.651  1.00  0.00     0.162 C 
ATOM     15  N2  HUB A   1       5.526  67.854  65.790  1.00  0.00    -0.061 N 
ATOM     16  C13 HUB A   1       4.868  65.685  64.734  1.00  0.00     0.078 C 
ATOM     17  C14 HUB A   1       4.757  64.948  63.404  1.00  0.00    -0.084 C 
ATOM     18  C15 HUB A   1       4.873  63.450  63.524  1.00  0.00     0.043 C 
ATOM     19  C90 HUB A   1       5.505  69.417  65.775  1.00  0.00     0.233 C 
ATOM     20  H1  HUB A   1       0.493  68.226  62.861  1.00  0.00     0.169 HD
ATOM     21  H13 HUB A   1       6.483  67.544  65.726  1.00  0.00     0.278 HD
ATOM     22  H14 HUB A   1       5.127  67.535  66.660  1.00  0.00     0.278 HD
ENDROOT
TORSDOF 0
ENDMDL
MODEL 4
REMARK VINA RESULT:      -8.5      1.426      3.978
REMARK  0 active torsions:
REMARK  status: ('A' for Active; 'I' for Inactive)
ROOT
ATOM      1  C1  HUB A   1       3.102  68.183  60.258  1.00  0.00     0.245 A 
ATOM      2  O1  HUB A   1       2.659  68.568  59.173  1.00  0.00    -0.268 OA
ATOM      3  N1  HUB A   1       2.308  68.263  61.399  1.00  0.00    -0.327 N 
ATOM      4  C2  HUB A   1       4.436  67.637  60.433  1.00  0.00     0.075 A 
ATOM      5  C3  HUB A   1       4.861  67.226  61.671  1.00  0.00     0.017 A 
ATOM      6  C4  HUB A   1       4.032  67.304  62.849  1.00  0.00     0.001 A 
ATOM      7  C5  HUB A   1       2.718  67.863  62.682  1.00  0.00     0.021 A 
ATOM      8  C6  HUB A   1       1.724  68.040  63.814  1.00  0.00     0.066 C 
ATOM      9  C7  HUB A   1       2.319  67.655  65.258  1.00  0.00     0.021 C 
ATOM     10  C8  HUB A   1       3.097  68.849  65.870  1.00  0.00    -0.019 C 
ATOM     11  C9  HUB A   1       3.576  64.041  64.472  1.00  0.00     0.028 C 
ATOM     12  C10 HUB A   1       2.594  65.219  64.578  1.00  0.00     0.010 C 
ATOM     13  C11 HUB A   1       3.295  66.457  65.164  1.00  0.00     0.035 C 
ATOM     14  C12 HUB A   1       4.540  66.821  64.299  1.00  0.00     0.162 C 
ATOM     15  N2  HUB A   1       5.473  65.638  64.189  1.00  0.00    -0.061 N 
ATOM     16  C13 HUB A   1       5.317  68.018  64.937  1.00  0.00     0.078 C 
ATOM     17  C14 HUB A   1       4.464  69.008  65.722  1.00  0.00    -0.084 C 
ATOM     18  C15 HUB A   1       5.246  70.151  66.316  1.00  0.00     0.043 C 
ATOM     19  C90 HUB A   1       4.780  64.366  63.600  1.00  0.00     0.233 C 
ATOM     20  H1  HUB A   1       1.383  68.631  61.298  1.00  0.00     0.169 HD
ATOM     21  H13 HUB A   1       5.821  65.417  65.109  1.00  0.00     0.278 HD
ATOM     22  H14 HUB A   1       6.243  65.890  63.590  1.00  0.00     0.278 HD
ENDROOT
TORSDOF 0
ENDMDL
