REMARK  0 active torsions:
REMARK  status: ('A' for Active; 'I' for Inactive)
ROOT
ATOM      1  C1  HUB A   1       1.068  68.771  61.163  1.00  0.00     0.245 A 
ATOM      2  O1  HUB A   1       0.440  69.208  60.196  1.00  0.00    -0.268 OA
ATOM      3  N1  HUB A   1       2.353  68.265  60.983  1.00  0.00    -0.327 N 
ATOM      4  C2  HUB A   1       0.544  68.745  62.517  1.00  0.00     0.075 A 
ATOM      5  C3  HUB A   1       1.302  68.245  63.545  1.00  0.00     0.017 A 
ATOM      6  C4  HUB A   1       2.635  67.728  63.356  1.00  0.00     0.001 A 
ATOM      7  C5  HUB A   1       3.149  67.734  62.013  1.00  0.00     0.021 A 
ATOM      8  C6  HUB A   1       4.520  67.211  61.630  1.00  0.00     0.066 C 
ATOM      9  C7  HUB A   1       5.312  66.528  62.852  1.00  0.00     0.021 C 
ATOM     10  C8  HUB A   1       4.889  65.046  63.024  1.00  0.00    -0.019 C 
ATOM     11  C9  HUB A   1       5.125  69.456  65.431  1.00  0.00     0.028 C 
ATOM     12  C10 HUB A   1       5.432  68.738  64.106  1.00  0.00     0.010 C 
ATOM     13  C11 HUB A   1       5.024  67.256  64.187  1.00  0.00     0.035 C 
ATOM     14  C12 HUB A   1       3.516  67.141  64.569  1.00  0.00     0.162 C 
ATOM     15  N2  HUB A   1       3.239  67.879  65.858  1.00  0.00    -0.061 N 
ATOM     16  C13 HUB A   1       3.112  65.642  64.749  1.00  0.00     0.078 C 
ATOM     17  C14 HUB A   1       3.887  64.648  63.892  1.00  0.00    -0.084 C 
ATOM     18  C15 HUB A   1       3.465  63.214  64.087  1.00  0.00     0.043 C 
ATOM     19  C90 HUB A   1       3.651  69.386  65.801  1.00  0.00     0.233 C 
ATOM     20  H1  HUB A   1       2.735  68.280  60.059  1.00  0.00     0.169 HD
ATOM     21  H13 HUB A   1       3.755  67.433  66.600  1.00  0.00     0.278 HD
ATOM     22  H14 HUB A   1       2.252  67.823  66.054  1.00  0.00     0.278 HD
ENDROOT
TORSDOF 0
