REMARK  15 active torsions:
REMARK  status: ('A' for Active; 'I' for Inactive)
REMARK    1  A    between atoms: N17_7  and  C10_11 
REMARK    2  A    between atoms: N17_7  and  C24_8 
REMARK    3  A    between atoms: C24_8  and  C63_13 
REMARK    4  A    between atoms: C63_13  and  C64_28 
REMARK    5  A    between atoms: C37_23  and  N40_26 
REMARK    6  A    between atoms: N40_26  and  C41_27 
REMARK    7  A    between atoms: C41_27  and  C72_36 
REMARK    8  A    between atoms: C64_28  and  C65_29 
REMARK    9  A    between atoms: C65_29  and  C66_30 
REMARK   10  A    between atoms: C66_30  and  C67_31 
REMARK   11  A    between atoms: C67_31  and  C68_32 
REMARK   12  A    between atoms: C68_32  and  C69_33 
REMARK   13  A    between atoms: C69_33  and  C70_34 
REMARK   14  A    between atoms: C70_34  and  C71_35 
REMARK   15  A    between atoms: C71_35  and  C72_36 
ROOT
ATOM      1  C67 E12 A   1       2.781  62.582  69.929  1.00  0.00     0.000 C 
ENDROOT
BRANCH   1   2
ATOM      2  C66 E12 A   1       1.297  62.498  70.208  1.00  0.00     0.000 C 
BRANCH   2   3
ATOM      3  C65 E12 A   1       1.026  62.586  71.689  1.00  0.00     0.000 C 
BRANCH   3   4
ATOM      4  C64 E12 A   1      -0.465  62.556  71.994  1.00  0.00     0.002 C 
BRANCH   4   5
ATOM      5  C63 E12 A   1      -0.701  62.045  73.395  1.00  0.00     0.027 C 
BRANCH   5   6
ATOM      6  C24 E12 A   1      -0.413  60.535  73.489  1.00  0.00     0.233 C 
BRANCH   6   7
ATOM      7  N17 E12 A   1       0.428  60.376  74.765  1.00  0.00    -0.067 N 
ATOM      8  H5  E12 A   1       0.905  61.253  74.903  1.00  0.00     0.277 HD
ATOM      9  H6  E12 A   1      -0.224  60.226  75.519  1.00  0.00     0.277 HD
BRANCH   7  10
ATOM     10  C10 E12 A   1       1.477  59.297  74.887  1.00  0.00     0.220 C 
ATOM     11  C4  E12 A   1       2.505  59.421  73.742  1.00  0.00    -0.005 A 
ATOM     12  C3  E12 A   1       2.751  58.375  72.871  1.00  0.00     0.020 A 
ATOM     13  C5  E12 A   1       3.345  60.645  73.597  1.00  0.00     0.017 A 
ATOM     14  N2  E12 A   1       3.700  58.511  71.897  1.00  0.00    -0.327 N 
ATOM     15  C9  E12 A   1       2.005  57.036  72.928  1.00  0.00     0.058 C 
ATOM     16  C1  E12 A   1       4.522  59.602  71.666  1.00  0.00     0.245 A 
ATOM     17  H1  E12 A   1       3.814  57.733  71.279  1.00  0.00     0.169 HD
ATOM     18  C6  E12 A   1       4.304  60.758  72.616  1.00  0.00     0.075 A 
ATOM     19  O7  E12 A   1       5.331  59.604  70.717  1.00  0.00    -0.268 OA
ATOM     20  C14 E12 A   1       0.633  57.193  73.609  1.00  0.00     0.008 C 
ATOM     21  C13 E12 A   1       0.784  57.911  74.989  1.00  0.00     0.038 C 
ENDBRANCH   7  10
ENDBRANCH   6   7
ENDBRANCH   5   6
ENDBRANCH   4   5
ENDBRANCH   3   4
ENDBRANCH   2   3
ENDBRANCH   1   2
BRANCH   1  22
ATOM     22  C68 E12 A   1       3.345  63.972  70.136  1.00  0.00     0.000 C 
BRANCH  22  23
ATOM     23  C69 E12 A   1       4.602  64.242  69.326  1.00  0.00     0.000 C 
BRANCH  23  24
ATOM     24  C70 E12 A   1       4.808  65.734  69.131  1.00  0.00     0.000 C 
BRANCH  24  25
ATOM     25  C71 E12 A   1       3.955  66.334  68.017  1.00  0.00     0.002 C 
BRANCH  25  26
ATOM     26  C72 E12 A   1       4.182  65.665  66.648  1.00  0.00     0.027 C 
BRANCH  26  27
ATOM     27  C41 E12 A   1       3.190  66.131  65.576  1.00  0.00     0.233 C 
BRANCH  27  28
ATOM     28  N40 E12 A   1       3.038  67.597  65.754  1.00  0.00    -0.067 N 
ATOM     29  H27 E12 A   1       3.546  67.846  66.588  1.00  0.00     0.277 HD
ATOM     30  H28 E12 A   1       2.056  67.776  65.892  1.00  0.00     0.277 HD
BRANCH  28  31
ATOM     31  C37 E12 A   1       3.508  68.530  64.655  1.00  0.00     0.220 C 
ATOM     32  C32 E12 A   1       2.651  68.527  63.392  1.00  0.00    -0.005 A 
ATOM     33  C31 E12 A   1       3.258  68.560  62.137  1.00  0.00     0.020 A 
ATOM     34  C33 E12 A   1       1.168  68.531  63.456  1.00  0.00     0.017 A 
ATOM     35  N30 E12 A   1       2.473  68.594  61.022  1.00  0.00    -0.327 N 
ATOM     36  C36 E12 A   1       4.787  68.554  61.926  1.00  0.00     0.058 C 
ATOM     37  C29 E12 A   1       1.083  68.622  60.981  1.00  0.00     0.245 A 
ATOM     38  H17 E12 A   1       2.947  68.599  60.141  1.00  0.00     0.169 HD
ATOM     39  C34 E12 A   1       0.399  68.567  62.332  1.00  0.00     0.075 A 
ATOM     40  O35 E12 A   1       0.494  68.772  59.902  1.00  0.00    -0.268 OA
ATOM     41  C39 E12 A   1       5.520  69.022  63.197  1.00  0.00     0.008 C 
ATOM     42  C38 E12 A   1       5.007  68.250  64.418  1.00  0.00     0.038 C 
ENDBRANCH  28  31
ENDBRANCH  27  28
ENDBRANCH  26  27
ENDBRANCH  25  26
ENDBRANCH  24  25
ENDBRANCH  23  24
ENDBRANCH  22  23
ENDBRANCH   1  22
TORSDOF 15
