MODEL 1
REMARK VINA RESULT:      -9.4      1.629      1.987
REMARK  9 active torsions:
REMARK  status: ('A' for Active; 'I' for Inactive)
REMARK    1  A    between atoms: C65_1  and  C34_10 
REMARK    2  A    between atoms: C61_6  and  C25_7 
REMARK    3  A    between atoms: C25_7  and  N43_8 
REMARK    4  A    between atoms: C34_10  and  C31_11 
REMARK    5  A    between atoms: C31_11  and  N29_23 
REMARK    6  A    between atoms: C31_11  and  C35_12 
REMARK       I    between atoms: C35_12  and  N81_14 
REMARK    7  A    between atoms: C71_15  and  C91_20 
REMARK    8  A    between atoms: N29_23  and  S12_24 
REMARK    9  A    between atoms: S12_24  and  C2_27 
ROOT
ATOM      1  C31 FD1 A   1      -1.731  18.876  17.833  1.00  0.00     0.189 C 
ENDROOT
BRANCH   1   2
ATOM      2  C34 FD1 A   1      -2.706  17.748  18.209  1.00  0.00     0.074 C 
BRANCH   2   3
ATOM      3  C65 FD1 A   1      -2.136  16.336  17.984  1.00  0.00    -0.055 A 
ATOM      4  C64 FD1 A   1      -1.444  15.657  19.020  1.00  0.00     0.007 A 
ATOM      5  C63 FD1 A   1      -0.927  14.369  18.802  1.00  0.00     0.002 A 
ATOM      6  C62 FD1 A   1      -1.102  13.750  17.546  1.00  0.00     0.015 A 
ATOM      7  C61 FD1 A   1      -1.791  14.421  16.506  1.00  0.00     0.007 A 
ATOM      8  C66 FD1 A   1      -2.297  15.706  16.735  1.00  0.00     0.022 A 
BRANCH   7   9
ATOM      9  C25 FD1 A   1      -1.976  13.768  15.164  1.00  0.00     0.102 C 
ATOM     10  N54 FD1 A   1      -2.450  14.463  14.155  1.00  0.00    -0.385 N 
ATOM     11  H7  FD1 A   1      -2.698  15.454  14.283  1.00  0.00     0.157 HD
ATOM     12  H8  FD1 A   1      -2.572  14.016  13.234  1.00  0.00     0.157 HD
BRANCH   9  13
ATOM     13  N43 FD1 A   1      -1.654  12.517  15.029  1.00  0.00    -0.385 N 
ATOM     14  H5  FD1 A   1      -1.642  12.087  14.093  1.00  0.00     0.157 HD
ATOM     15  H6  FD1 A   1      -1.411  11.955  15.858  1.00  0.00     0.157 HD
ENDBRANCH   9  13
ENDBRANCH   7   9
ENDBRANCH   2   3
ENDBRANCH   1   2
BRANCH   1  16
ATOM     16  N29 FD1 A   1      -1.858  19.263  16.423  1.00  0.00    -0.301 N 
ATOM     17  H21 FD1 A   1      -1.884  18.563  15.709  1.00  0.00     0.173 HD
BRANCH  16  18
ATOM     18  S12 FD1 A   1      -1.960  20.922  16.008  1.00  0.00     0.259 S 
ATOM     19  O33 FD1 A   1      -1.893  21.720  17.186  1.00  0.00    -0.201 OA
ATOM     20  O32 FD1 A   1      -3.012  21.107  15.049  1.00  0.00    -0.201 OA
BRANCH  18  21
ATOM     21  C2  FD1 A   1      -0.483  21.125  15.148  1.00  0.00     0.080 A 
ATOM     22  C1  FD1 A   1       0.728  20.886  15.781  1.00  0.00     0.037 A 
ATOM     23  C9  FD1 A   1       1.946  21.070  15.084  1.00  0.00    -0.025 A 
ATOM     24  C10 FD1 A   1       1.925  21.519  13.716  1.00  0.00    -0.026 A 
ATOM     25  C8  FD1 A   1       3.188  20.810  15.744  1.00  0.00     0.012 A 
ATOM     26  C4  FD1 A   1       0.669  21.774  13.076  1.00  0.00     0.014 A 
ATOM     27  C5  FD1 A   1       3.173  21.698  13.044  1.00  0.00     0.012 A 
ATOM     28  C3  FD1 A   1      -0.538  21.579  13.812  1.00  0.00     0.026 A 
ATOM     29  C6  FD1 A   1       4.419  21.431  13.726  1.00  0.00     0.001 A 
ATOM     30  C7  FD1 A   1       4.412  20.987  15.065  1.00  0.00     0.001 A 
ENDBRANCH  18  21
ENDBRANCH  16  18
ENDBRANCH   1  16
BRANCH   1  31
ATOM     31  C35 FD1 A   1      -0.276  18.606  18.185  1.00  0.00     0.244 C 
ATOM     32  N81 FD1 A   1       0.273  18.949  19.396  1.00  0.00    -0.336 N 
ATOM     33  C75 FD1 A   1       1.515  18.287  19.852  1.00  0.00     0.127 C 
ATOM     34  C71 FD1 A   1      -0.493  19.765  20.385  1.00  0.00     0.188 C 
ATOM     35  C74 FD1 A   1       2.470  19.438  20.222  1.00  0.00     0.020 C 
ATOM     36  C40 FD1 A   1       1.824  20.584  20.939  1.00  0.00     0.004 C 
ATOM     37  C72 FD1 A   1       0.425  20.949  20.778  1.00  0.00     0.036 C 
ATOM     38  O36 FD1 A   1       0.367  18.054  17.291  1.00  0.00    -0.271 OA
BRANCH  34  39
ATOM     39  C91 FD1 A   1      -0.900  18.952  21.589  1.00  0.00     0.196 C 
ATOM     40  O93 FD1 A   1      -1.285  17.743  21.450  1.00  0.00    -0.646 OA
ATOM     41  O92 FD1 A   1      -0.882  19.465  22.749  1.00  0.00    -0.646 OA
ENDBRANCH  34  39
ENDBRANCH   1  31
TORSDOF 9
ENDMDL
MODEL 2
REMARK VINA RESULT:      -8.6      2.586      4.071
REMARK  9 active torsions:
REMARK  status: ('A' for Active; 'I' for Inactive)
REMARK    1  A    between atoms: C65_1  and  C34_10 
REMARK    2  A    between atoms: C61_6  and  C25_7 
REMARK    3  A    between atoms: C25_7  and  N43_8 
REMARK    4  A    between atoms: C34_10  and  C31_11 
REMARK    5  A    between atoms: C31_11  and  N29_23 
REMARK    6  A    between atoms: C31_11  and  C35_12 
REMARK       I    between atoms: C35_12  and  N81_14 
REMARK    7  A    between atoms: C71_15  and  C91_20 
REMARK    8  A    between atoms: N29_23  and  S12_24 
REMARK    9  A    between atoms: S12_24  and  C2_27 
ROOT
ATOM      1  C31 FD1 A   1      -1.678  18.867  17.968  1.00  0.00     0.189 C 
ENDROOT
BRANCH   1   2
ATOM      2  C34 FD1 A   1      -2.583  17.747  18.506  1.00  0.00     0.074 C 
BRANCH   2   3
ATOM      3  C65 FD1 A   1      -2.045  16.331  18.228  1.00  0.00    -0.055 A 
ATOM      4  C64 FD1 A   1      -1.262  15.648  19.193  1.00  0.00     0.007 A 
ATOM      5  C63 FD1 A   1      -0.777  14.356  18.928  1.00  0.00     0.002 A 
ATOM      6  C62 FD1 A   1      -1.075  13.738  17.696  1.00  0.00     0.015 A 
ATOM      7  C61 FD1 A   1      -1.856  14.413  16.726  1.00  0.00     0.007 A 
ATOM      8  C66 FD1 A   1      -2.330  15.702  17.001  1.00  0.00     0.022 A 
BRANCH   7   9
ATOM      9  C25 FD1 A   1      -2.173  13.761  15.409  1.00  0.00     0.102 C 
ATOM     10  N54 FD1 A   1      -2.965  14.363  14.551  1.00  0.00    -0.385 N 
ATOM     11  H7  FD1 A   1      -3.372  15.281  14.782  1.00  0.00     0.157 HD
ATOM     12  H8  FD1 A   1      -3.179  13.918  13.646  1.00  0.00     0.157 HD
BRANCH   9  13
ATOM     13  N43 FD1 A   1      -1.646  12.604  15.142  1.00  0.00    -0.385 N 
ATOM     14  H5  FD1 A   1      -2.227  11.754  15.174  1.00  0.00     0.157 HD
ATOM     15  H6  FD1 A   1      -0.647  12.536  14.900  1.00  0.00     0.157 HD
ENDBRANCH   9  13
ENDBRANCH   7   9
ENDBRANCH   2   3
ENDBRANCH   1   2
BRANCH   1  16
ATOM     16  N29 FD1 A   1      -2.040  19.254  16.598  1.00  0.00    -0.301 N 
ATOM     17  H21 FD1 A   1      -2.026  18.576  15.863  1.00  0.00     0.173 HD
BRANCH  16  18
ATOM     18  S12 FD1 A   1      -2.486  20.876  16.269  1.00  0.00     0.259 S 
ATOM     19  O33 FD1 A   1      -3.479  20.906  15.247  1.00  0.00    -0.201 OA
ATOM     20  O32 FD1 A   1      -1.303  21.683  16.175  1.00  0.00    -0.201 OA
BRANCH  18  21
ATOM     21  C2  FD1 A   1      -3.244  21.303  17.754  1.00  0.00     0.080 A 
ATOM     22  C1  FD1 A   1      -4.531  20.864  18.029  1.00  0.00     0.037 A 
ATOM     23  C9  FD1 A   1      -5.166  21.228  19.240  1.00  0.00    -0.025 A 
ATOM     24  C10 FD1 A   1      -4.475  22.068  20.184  1.00  0.00    -0.026 A 
ATOM     25  C8  FD1 A   1      -6.488  20.759  19.517  1.00  0.00     0.012 A 
ATOM     26  C4  FD1 A   1      -3.151  22.527  19.883  1.00  0.00     0.014 A 
ATOM     27  C5  FD1 A   1      -5.147  22.421  21.394  1.00  0.00     0.012 A 
ATOM     28  C3  FD1 A   1      -2.545  22.140  18.651  1.00  0.00     0.026 A 
ATOM     29  C6  FD1 A   1      -6.484  21.940  21.658  1.00  0.00     0.001 A 
ATOM     30  C7  FD1 A   1      -7.137  21.112  20.720  1.00  0.00     0.001 A 
ENDBRANCH  18  21
ENDBRANCH  16  18
ENDBRANCH   1  16
BRANCH   1  31
ATOM     31  C35 FD1 A   1      -0.186  18.588  18.067  1.00  0.00     0.244 C 
ATOM     32  N81 FD1 A   1       0.544  18.841  19.202  1.00  0.00    -0.336 N 
ATOM     33  C75 FD1 A   1       1.841  18.160  19.407  1.00  0.00     0.127 C 
ATOM     34  C71 FD1 A   1      -0.059  19.568  20.359  1.00  0.00     0.188 C 
ATOM     35  C74 FD1 A   1       2.843  19.289  19.715  1.00  0.00     0.020 C 
ATOM     36  C40 FD1 A   1       2.316  20.368  20.612  1.00  0.00     0.004 C 
ATOM     37  C72 FD1 A   1       0.909  20.728  20.698  1.00  0.00     0.036 C 
ATOM     38  O36 FD1 A   1       0.310  18.114  17.044  1.00  0.00    -0.271 OA
BRANCH  34  39
ATOM     39  C91 FD1 A   1      -0.275  18.659  21.544  1.00  0.00     0.196 C 
ATOM     40  O93 FD1 A   1      -1.203  17.782  21.523  1.00  0.00    -0.646 OA
ATOM     41  O92 FD1 A   1       0.449  18.766  22.580  1.00  0.00    -0.646 OA
ENDBRANCH  34  39
ENDBRANCH   1  31
TORSDOF 9
ENDMDL
MODEL 3
REMARK VINA RESULT:      -8.2      2.073      3.276
REMARK  9 active torsions:
REMARK  status: ('A' for Active; 'I' for Inactive)
REMARK    1  A    between atoms: C65_1  and  C34_10 
REMARK    2  A    between atoms: C61_6  and  C25_7 
REMARK    3  A    between atoms: C25_7  and  N43_8 
REMARK    4  A    between atoms: C34_10  and  C31_11 
REMARK    5  A    between atoms: C31_11  and  N29_23 
REMARK    6  A    between atoms: C31_11  and  C35_12 
REMARK       I    between atoms: C35_12  and  N81_14 
REMARK    7  A    between atoms: C71_15  and  C91_20 
REMARK    8  A    between atoms: N29_23  and  S12_24 
REMARK    9  A    between atoms: S12_24  and  C2_27 
ROOT
ATOM      1  C31 FD1 A   1      -1.236  18.756  19.055  1.00  0.00     0.189 C 
ENDROOT
BRANCH   1   2
ATOM      2  C34 FD1 A   1      -2.307  17.700  18.742  1.00  0.00     0.074 C 
BRANCH   2   3
ATOM      3  C65 FD1 A   1      -1.728  16.332  18.336  1.00  0.00    -0.055 A 
ATOM      4  C64 FD1 A   1      -0.749  15.690  19.137  1.00  0.00     0.007 A 
ATOM      5  C63 FD1 A   1      -0.228  14.442  18.756  1.00  0.00     0.002 A 
ATOM      6  C62 FD1 A   1      -0.684  13.827  17.572  1.00  0.00     0.015 A 
ATOM      7  C61 FD1 A   1      -1.661  14.461  16.765  1.00  0.00     0.007 A 
ATOM      8  C66 FD1 A   1      -2.170  15.707  17.154  1.00  0.00     0.022 A 
BRANCH   7   9
ATOM      9  C25 FD1 A   1      -2.148  13.813  15.499  1.00  0.00     0.102 C 
ATOM     10  N54 FD1 A   1      -3.023  14.430  14.738  1.00  0.00    -0.385 N 
ATOM     11  H7  FD1 A   1      -3.379  15.358  15.011  1.00  0.00     0.157 HD
ATOM     12  H8  FD1 A   1      -3.353  13.987  13.869  1.00  0.00     0.157 HD
BRANCH   9  13
ATOM     13  N43 FD1 A   1      -1.683  12.643  15.179  1.00  0.00    -0.385 N 
ATOM     14  H5  FD1 A   1      -2.248  11.799  15.351  1.00  0.00     0.157 HD
ATOM     15  H6  FD1 A   1      -0.748  12.559  14.752  1.00  0.00     0.157 HD
ENDBRANCH   9  13
ENDBRANCH   7   9
ENDBRANCH   2   3
ENDBRANCH   1   2
BRANCH   1  16
ATOM     16  N29 FD1 A   1       0.017  18.497  18.334  1.00  0.00    -0.301 N 
ATOM     17  H21 FD1 A   1       0.583  17.709  18.576  1.00  0.00     0.173 HD
BRANCH  16  18
ATOM     18  S12 FD1 A   1       0.502  19.554  17.076  1.00  0.00     0.259 S 
ATOM     19  O33 FD1 A   1      -0.519  20.518  16.835  1.00  0.00    -0.201 OA
ATOM     20  O32 FD1 A   1       1.063  18.786  16.001  1.00  0.00    -0.201 OA
BRANCH  18  21
ATOM     21  C2  FD1 A   1       1.821  20.361  17.831  1.00  0.00     0.080 A 
ATOM     22  C1  FD1 A   1       2.097  20.137  19.172  1.00  0.00     0.037 A 
ATOM     23  C9  FD1 A   1       3.169  20.812  19.803  1.00  0.00    -0.025 A 
ATOM     24  C10 FD1 A   1       3.968  21.745  19.050  1.00  0.00    -0.026 A 
ATOM     25  C8  FD1 A   1       3.450  20.565  21.184  1.00  0.00     0.012 A 
ATOM     26  C4  FD1 A   1       3.666  21.977  17.669  1.00  0.00     0.014 A 
ATOM     27  C5  FD1 A   1       5.039  22.413  19.719  1.00  0.00     0.012 A 
ATOM     28  C3  FD1 A   1       2.576  21.279  17.068  1.00  0.00     0.026 A 
ATOM     29  C6  FD1 A   1       5.309  22.151  21.115  1.00  0.00     0.001 A 
ATOM     30  C7  FD1 A   1       4.514  21.229  21.829  1.00  0.00     0.001 A 
ENDBRANCH  18  21
ENDBRANCH  16  18
ENDBRANCH   1  16
BRANCH   1  31
ATOM     31  C35 FD1 A   1      -0.965  18.972  20.536  1.00  0.00     0.244 C 
ATOM     32  N81 FD1 A   1      -1.022  20.209  21.130  1.00  0.00    -0.336 N 
ATOM     33  C75 FD1 A   1      -1.195  20.311  22.596  1.00  0.00     0.127 C 
ATOM     34  C71 FD1 A   1      -1.191  21.448  20.314  1.00  0.00     0.188 C 
ATOM     35  C74 FD1 A   1      -0.062  21.241  23.069  1.00  0.00     0.020 C 
ATOM     36  C40 FD1 A   1       0.201  22.415  22.177  1.00  0.00     0.004 C 
ATOM     37  C72 FD1 A   1      -0.060  22.413  20.746  1.00  0.00     0.036 C 
ATOM     38  O36 FD1 A   1      -0.692  17.944  21.156  1.00  0.00    -0.271 OA
BRANCH  34  39
ATOM     39  C91 FD1 A   1      -2.554  22.066  20.506  1.00  0.00     0.196 C 
ATOM     40  O93 FD1 A   1      -3.609  21.395  20.248  1.00  0.00    -0.646 OA
ATOM     41  O92 FD1 A   1      -2.668  23.264  20.909  1.00  0.00    -0.646 OA
ENDBRANCH  34  39
ENDBRANCH   1  31
TORSDOF 9
ENDMDL
MODEL 4
REMARK VINA RESULT:      -8.2      2.555      4.338
REMARK  9 active torsions:
REMARK  status: ('A' for Active; 'I' for Inactive)
REMARK    1  A    between atoms: C65_1  and  C34_10 
REMARK    2  A    between atoms: C61_6  and  C25_7 
REMARK    3  A    between atoms: C25_7  and  N43_8 
REMARK    4  A    between atoms: C34_10  and  C31_11 
REMARK    5  A    between atoms: C31_11  and  N29_23 
REMARK    6  A    between atoms: C31_11  and  C35_12 
REMARK       I    between atoms: C35_12  and  N81_14 
REMARK    7  A    between atoms: C71_15  and  C91_20 
REMARK    8  A    between atoms: N29_23  and  S12_24 
REMARK    9  A    between atoms: S12_24  and  C2_27 
ROOT
ATOM      1  C31 FD1 A   1      -2.018  18.944  17.155  1.00  0.00     0.189 C 
ENDROOT
BRANCH   1   2
ATOM      2  C34 FD1 A   1      -2.712  17.907  18.053  1.00  0.00     0.074 C 
BRANCH   2   3
ATOM      3  C65 FD1 A   1      -2.152  16.481  17.898  1.00  0.00    -0.055 A 
ATOM      4  C64 FD1 A   1      -1.471  15.846  18.969  1.00  0.00     0.007 A 
ATOM      5  C63 FD1 A   1      -0.964  14.545  18.815  1.00  0.00     0.002 A 
ATOM      6  C62 FD1 A   1      -1.136  13.869  17.589  1.00  0.00     0.015 A 
ATOM      7  C61 FD1 A   1      -1.814  14.495  16.514  1.00  0.00     0.007 A 
ATOM      8  C66 FD1 A   1      -2.311  15.794  16.680  1.00  0.00     0.022 A 
BRANCH   7   9
ATOM      9  C25 FD1 A   1      -1.997  13.781  15.204  1.00  0.00     0.102 C 
ATOM     10  N54 FD1 A   1      -2.499  14.420  14.171  1.00  0.00    -0.385 N 
ATOM     11  H7  FD1 A   1      -2.771  15.410  14.260  1.00  0.00     0.157 HD
ATOM     12  H8  FD1 A   1      -2.620  13.931  13.272  1.00  0.00     0.157 HD
BRANCH   9  13
ATOM     13  N43 FD1 A   1      -1.645  12.534  15.119  1.00  0.00    -0.385 N 
ATOM     14  H5  FD1 A   1      -0.667  12.288  14.908  1.00  0.00     0.157 HD
ATOM     15  H6  FD1 A   1      -2.343  11.790  15.261  1.00  0.00     0.157 HD
ENDBRANCH   9  13
ENDBRANCH   7   9
ENDBRANCH   2   3
ENDBRANCH   1   2
BRANCH   1  16
ATOM     16  N29 FD1 A   1      -0.936  19.643  17.860  1.00  0.00    -0.301 N 
ATOM     17  H21 FD1 A   1      -1.029  19.865  18.831  1.00  0.00     0.173 HD
BRANCH  16  18
ATOM     18  S12 FD1 A   1       0.486  20.075  17.008  1.00  0.00     0.259 S 
ATOM     19  O33 FD1 A   1       0.289  21.316  16.336  1.00  0.00    -0.201 OA
ATOM     20  O32 FD1 A   1       0.987  18.927  16.308  1.00  0.00    -0.201 OA
BRANCH  18  21
ATOM     21  C2  FD1 A   1       1.568  20.351  18.318  1.00  0.00     0.080 A 
ATOM     22  C1  FD1 A   1       2.584  21.287  18.195  1.00  0.00     0.037 A 
ATOM     23  C9  FD1 A   1       3.488  21.504  19.262  1.00  0.00    -0.025 A 
ATOM     24  C10 FD1 A   1       3.358  20.739  20.475  1.00  0.00    -0.026 A 
ATOM     25  C8  FD1 A   1       4.524  22.481  19.128  1.00  0.00     0.012 A 
ATOM     26  C4  FD1 A   1       2.312  19.765  20.586  1.00  0.00     0.014 A 
ATOM     27  C5  FD1 A   1       4.290  20.979  21.530  1.00  0.00     0.012 A 
ATOM     28  C3  FD1 A   1       1.421  19.574  19.488  1.00  0.00     0.026 A 
ATOM     29  C6  FD1 A   1       5.332  21.969  21.378  1.00  0.00     0.001 A 
ATOM     30  C7  FD1 A   1       5.435  22.710  20.181  1.00  0.00     0.001 A 
ENDBRANCH  18  21
ENDBRANCH  16  18
ENDBRANCH   1  16
BRANCH   1  31
ATOM     31  C35 FD1 A   1      -2.954  19.941  16.490  1.00  0.00     0.244 C 
ATOM     32  N81 FD1 A   1      -3.861  20.695  17.194  1.00  0.00    -0.336 N 
ATOM     33  C75 FD1 A   1      -4.410  21.930  16.594  1.00  0.00     0.127 C 
ATOM     34  C71 FD1 A   1      -4.097  20.454  18.649  1.00  0.00     0.188 C 
ATOM     35  C74 FD1 A   1      -5.939  21.789  16.717  1.00  0.00     0.020 C 
ATOM     36  C40 FD1 A   1      -6.415  21.209  18.014  1.00  0.00     0.004 C 
ATOM     37  C72 FD1 A   1      -5.627  20.290  18.821  1.00  0.00     0.036 C 
ATOM     38  O36 FD1 A   1      -2.828  20.016  15.267  1.00  0.00    -0.271 OA
BRANCH  34  39
ATOM     39  C91 FD1 A   1      -3.557  21.577  19.499  1.00  0.00     0.196 C 
ATOM     40  O93 FD1 A   1      -2.346  21.959  19.370  1.00  0.00    -0.646 OA
ATOM     41  O92 FD1 A   1      -4.294  22.143  20.363  1.00  0.00    -0.646 OA
ENDBRANCH  34  39
ENDBRANCH   1  31
TORSDOF 9
ENDMDL
MODEL 5
REMARK VINA RESULT:      -7.7      2.677      3.886
REMARK  9 active torsions:
REMARK  status: ('A' for Active; 'I' for Inactive)
REMARK    1  A    between atoms: C65_1  and  C34_10 
REMARK    2  A    between atoms: C61_6  and  C25_7 
REMARK    3  A    between atoms: C25_7  and  N43_8 
REMARK    4  A    between atoms: C34_10  and  C31_11 
REMARK    5  A    between atoms: C31_11  and  N29_23 
REMARK    6  A    between atoms: C31_11  and  C35_12 
REMARK       I    between atoms: C35_12  and  N81_14 
REMARK    7  A    between atoms: C71_15  and  C91_20 
REMARK    8  A    between atoms: N29_23  and  S12_24 
REMARK    9  A    between atoms: S12_24  and  C2_27 
ROOT
ATOM      1  C31 FD1 A   1       0.321  20.317  19.198  1.00  0.00     0.189 C 
ENDROOT
BRANCH   1   2
ATOM      2  C34 FD1 A   1      -0.719  19.508  19.989  1.00  0.00     0.074 C 
BRANCH   2   3
ATOM      3  C65 FD1 A   1      -1.355  18.362  19.183  1.00  0.00    -0.055 A 
ATOM      4  C64 FD1 A   1      -2.570  18.555  18.476  1.00  0.00     0.007 A 
ATOM      5  C63 FD1 A   1      -3.141  17.501  17.744  1.00  0.00     0.002 A 
ATOM      6  C62 FD1 A   1      -2.498  16.245  17.712  1.00  0.00     0.015 A 
ATOM      7  C61 FD1 A   1      -1.286  16.042  18.415  1.00  0.00     0.007 A 
ATOM      8  C66 FD1 A   1      -0.729  17.101  19.144  1.00  0.00     0.022 A 
BRANCH   7   9
ATOM      9  C25 FD1 A   1      -0.599  14.705  18.387  1.00  0.00     0.102 C 
ATOM     10  N54 FD1 A   1       0.221  14.367  19.357  1.00  0.00    -0.385 N 
ATOM     11  H7  FD1 A   1       0.396  15.020  20.135  1.00  0.00     0.157 HD
ATOM     12  H8  FD1 A   1       0.688  13.449  19.340  1.00  0.00     0.157 HD
BRANCH   9  13
ATOM     13  N43 FD1 A   1      -0.838  13.901  17.396  1.00  0.00    -0.385 N 
ATOM     14  H5  FD1 A   1      -0.201  13.878  16.587  1.00  0.00     0.157 HD
ATOM     15  H6  FD1 A   1      -1.664  13.286  17.419  1.00  0.00     0.157 HD
ENDBRANCH   9  13
ENDBRANCH   7   9
ENDBRANCH   2   3
ENDBRANCH   1   2
BRANCH   1  16
ATOM     16  N29 FD1 A   1       0.287  20.000  17.765  1.00  0.00    -0.301 N 
ATOM     17  H21 FD1 A   1       0.622  19.117  17.437  1.00  0.00     0.173 HD
BRANCH  16  18
ATOM     18  S12 FD1 A   1      -0.329  21.155  16.659  1.00  0.00     0.259 S 
ATOM     19  O33 FD1 A   1      -0.483  22.413  17.309  1.00  0.00    -0.201 OA
ATOM     20  O32 FD1 A   1      -1.408  20.570  15.914  1.00  0.00    -0.201 OA
BRANCH  18  21
ATOM     21  C2  FD1 A   1       0.995  21.284  15.567  1.00  0.00     0.080 A 
ATOM     22  C1  FD1 A   1       2.260  20.869  15.956  1.00  0.00     0.037 A 
ATOM     23  C9  FD1 A   1       3.356  20.991  15.069  1.00  0.00    -0.025 A 
ATOM     24  C10 FD1 A   1       3.156  21.560  13.761  1.00  0.00    -0.026 A 
ATOM     25  C8  FD1 A   1       4.653  20.550  15.477  1.00  0.00     0.012 A 
ATOM     26  C4  FD1 A   1       1.847  21.997  13.374  1.00  0.00     0.014 A 
ATOM     27  C5  FD1 A   1       4.285  21.673  12.892  1.00  0.00     0.012 A 
ATOM     28  C3  FD1 A   1       0.768  21.859  14.297  1.00  0.00     0.026 A 
ATOM     29  C6  FD1 A   1       5.589  21.222  13.321  1.00  0.00     0.001 A 
ATOM     30  C7  FD1 A   1       5.758  20.663  14.606  1.00  0.00     0.001 A 
ENDBRANCH  18  21
ENDBRANCH  16  18
ENDBRANCH   1  16
BRANCH   1  31
ATOM     31  C35 FD1 A   1       1.742  20.226  19.732  1.00  0.00     0.244 C 
ATOM     32  N81 FD1 A   1       2.553  21.325  19.881  1.00  0.00    -0.336 N 
ATOM     33  C75 FD1 A   1       3.716  21.260  20.793  1.00  0.00     0.127 C 
ATOM     34  C71 FD1 A   1       2.137  22.663  19.365  1.00  0.00     0.188 C 
ATOM     35  C74 FD1 A   1       4.914  21.735  19.949  1.00  0.00     0.020 C 
ATOM     36  C40 FD1 A   1       4.625  22.895  19.046  1.00  0.00     0.004 C 
ATOM     37  C72 FD1 A   1       3.309  23.178  18.494  1.00  0.00     0.036 C 
ATOM     38  O36 FD1 A   1       2.103  19.084  20.020  1.00  0.00    -0.271 OA
BRANCH  34  39
ATOM     39  C91 FD1 A   1       1.813  23.621  20.485  1.00  0.00     0.196 C 
ATOM     40  O93 FD1 A   1       0.996  23.284  21.405  1.00  0.00    -0.646 OA
ATOM     41  O92 FD1 A   1       2.333  24.778  20.514  1.00  0.00    -0.646 OA
ENDBRANCH  34  39
ENDBRANCH   1  31
TORSDOF 9
ENDMDL
MODEL 6
REMARK VINA RESULT:      -7.3      3.218      5.906
REMARK  9 active torsions:
REMARK  status: ('A' for Active; 'I' for Inactive)
REMARK    1  A    between atoms: C65_1  and  C34_10 
REMARK    2  A    between atoms: C61_6  and  C25_7 
REMARK    3  A    between atoms: C25_7  and  N43_8 
REMARK    4  A    between atoms: C34_10  and  C31_11 
REMARK    5  A    between atoms: C31_11  and  N29_23 
REMARK    6  A    between atoms: C31_11  and  C35_12 
REMARK       I    between atoms: C35_12  and  N81_14 
REMARK    7  A    between atoms: C71_15  and  C91_20 
REMARK    8  A    between atoms: N29_23  and  S12_24 
REMARK    9  A    between atoms: S12_24  and  C2_27 
ROOT
ATOM      1  C31 FD1 A   1       1.818  21.476  17.847  1.00  0.00     0.189 C 
ENDROOT
BRANCH   1   2
ATOM      2  C34 FD1 A   1       1.804  19.946  17.702  1.00  0.00     0.074 C 
BRANCH   2   3
ATOM      3  C65 FD1 A   1       0.523  19.285  18.243  1.00  0.00    -0.055 A 
ATOM      4  C64 FD1 A   1      -0.081  19.741  19.443  1.00  0.00     0.007 A 
ATOM      5  C63 FD1 A   1      -1.249  19.130  19.927  1.00  0.00     0.002 A 
ATOM      6  C62 FD1 A   1      -1.823  18.058  19.212  1.00  0.00     0.015 A 
ATOM      7  C61 FD1 A   1      -1.227  17.595  18.014  1.00  0.00     0.007 A 
ATOM      8  C66 FD1 A   1      -0.061  18.211  17.544  1.00  0.00     0.022 A 
BRANCH   7   9
ATOM      9  C25 FD1 A   1      -1.833  16.450  17.249  1.00  0.00     0.102 C 
ATOM     10  N54 FD1 A   1      -2.305  16.644  16.039  1.00  0.00    -0.385 N 
ATOM     11  H7  FD1 A   1      -2.264  17.582  15.614  1.00  0.00     0.157 HD
ATOM     12  H8  FD1 A   1      -2.716  15.858  15.514  1.00  0.00     0.157 HD
BRANCH   9  13
ATOM     13  N43 FD1 A   1      -1.871  15.278  17.808  1.00  0.00    -0.385 N 
ATOM     14  H5  FD1 A   1      -1.188  14.556  17.538  1.00  0.00     0.157 HD
ATOM     15  H6  FD1 A   1      -2.586  15.070  18.521  1.00  0.00     0.157 HD
ENDBRANCH   9  13
ENDBRANCH   7   9
ENDBRANCH   2   3
ENDBRANCH   1   2
BRANCH   1  16
ATOM     16  N29 FD1 A   1       0.961  22.129  16.850  1.00  0.00    -0.301 N 
ATOM     17  H21 FD1 A   1       1.132  21.994  15.874  1.00  0.00     0.173 HD
BRANCH  16  18
ATOM     18  S12 FD1 A   1      -0.334  23.124  17.371  1.00  0.00     0.259 S 
ATOM     19  O33 FD1 A   1      -0.512  24.202  16.457  1.00  0.00    -0.201 OA
ATOM     20  O32 FD1 A   1      -0.211  23.361  18.781  1.00  0.00    -0.201 OA
BRANCH  18  21
ATOM     21  C2  FD1 A   1      -1.659  22.044  17.177  1.00  0.00     0.080 A 
ATOM     22  C1  FD1 A   1      -2.668  22.004  18.129  1.00  0.00     0.037 A 
ATOM     23  C9  FD1 A   1      -3.751  21.105  17.985  1.00  0.00    -0.025 A 
ATOM     24  C10 FD1 A   1      -3.797  20.218  16.851  1.00  0.00    -0.026 A 
ATOM     25  C8  FD1 A   1      -4.791  21.081  18.966  1.00  0.00     0.012 A 
ATOM     26  C4  FD1 A   1      -2.743  20.259  15.881  1.00  0.00     0.014 A 
ATOM     27  C5  FD1 A   1      -4.901  19.319  16.738  1.00  0.00     0.012 A 
ATOM     28  C3  FD1 A   1      -1.667  21.178  16.061  1.00  0.00     0.026 A 
ATOM     29  C6  FD1 A   1      -5.943  19.308  17.740  1.00  0.00     0.001 A 
ATOM     30  C7  FD1 A   1      -5.878  20.191  18.839  1.00  0.00     0.001 A 
ENDBRANCH  18  21
ENDBRANCH  16  18
ENDBRANCH   1  16
BRANCH   1  31
ATOM     31  C35 FD1 A   1       3.203  22.104  17.855  1.00  0.00     0.244 C 
ATOM     32  N81 FD1 A   1       3.986  22.194  16.730  1.00  0.00    -0.336 N 
ATOM     33  C75 FD1 A   1       5.088  23.179  16.681  1.00  0.00     0.127 C 
ATOM     34  C71 FD1 A   1       3.584  21.523  15.458  1.00  0.00     0.188 C 
ATOM     35  C74 FD1 A   1       6.331  22.369  16.265  1.00  0.00     0.020 C 
ATOM     36  C40 FD1 A   1       6.084  21.340  15.204  1.00  0.00     0.004 C 
ATOM     37  C72 FD1 A   1       4.802  20.681  15.005  1.00  0.00     0.036 C 
ATOM     38  O36 FD1 A   1       3.562  22.526  18.955  1.00  0.00    -0.271 OA
BRANCH  34  39
ATOM     39  C91 FD1 A   1       3.174  22.520  14.402  1.00  0.00     0.196 C 
ATOM     40  O93 FD1 A   1       2.349  23.453  14.682  1.00  0.00    -0.646 OA
ATOM     41  O92 FD1 A   1       3.628  22.432  13.221  1.00  0.00    -0.646 OA
ENDBRANCH  34  39
ENDBRANCH   1  31
TORSDOF 9
ENDMDL
MODEL 7
REMARK VINA RESULT:      -7.1      2.933      4.895
REMARK  9 active torsions:
REMARK  status: ('A' for Active; 'I' for Inactive)
REMARK    1  A    between atoms: C65_1  and  C34_10 
REMARK    2  A    between atoms: C61_6  and  C25_7 
REMARK    3  A    between atoms: C25_7  and  N43_8 
REMARK    4  A    between atoms: C34_10  and  C31_11 
REMARK    5  A    between atoms: C31_11  and  N29_23 
REMARK    6  A    between atoms: C31_11  and  C35_12 
REMARK       I    between atoms: C35_12  and  N81_14 
REMARK    7  A    between atoms: C71_15  and  C91_20 
REMARK    8  A    between atoms: N29_23  and  S12_24 
REMARK    9  A    between atoms: S12_24  and  C2_27 
ROOT
ATOM      1  C31 FD1 A   1      -1.915  19.386  17.265  1.00  0.00     0.189 C 
ENDROOT
BRANCH   1   2
ATOM      2  C34 FD1 A   1      -3.219  18.609  17.510  1.00  0.00     0.074 C 
BRANCH   2   3
ATOM      3  C65 FD1 A   1      -4.343  19.464  18.123  1.00  0.00    -0.055 A 
ATOM      4  C64 FD1 A   1      -5.707  19.143  17.900  1.00  0.00     0.007 A 
ATOM      5  C63 FD1 A   1      -6.723  19.931  18.465  1.00  0.00     0.002 A 
ATOM      6  C62 FD1 A   1      -6.382  21.046  19.259  1.00  0.00     0.015 A 
ATOM      7  C61 FD1 A   1      -5.024  21.375  19.486  1.00  0.00     0.007 A 
ATOM      8  C66 FD1 A   1      -4.020  20.583  18.914  1.00  0.00     0.022 A 
BRANCH   7   9
ATOM      9  C25 FD1 A   1      -4.654  22.565  20.328  1.00  0.00     0.102 C 
ATOM     10  N54 FD1 A   1      -4.946  23.778  19.915  1.00  0.00    -0.385 N 
ATOM     11  H7  FD1 A   1      -5.424  23.915  19.013  1.00  0.00     0.157 HD
ATOM     12  H8  FD1 A   1      -4.697  24.593  20.495  1.00  0.00     0.157 HD
BRANCH   9  13
ATOM     13  N43 FD1 A   1      -4.052  22.365  21.461  1.00  0.00    -0.385 N 
ATOM     14  H5  FD1 A   1      -3.523  23.129  21.905  1.00  0.00     0.157 HD
ATOM     15  H6  FD1 A   1      -4.104  21.442  21.916  1.00  0.00     0.157 HD
ENDBRANCH   9  13
ENDBRANCH   7   9
ENDBRANCH   2   3
ENDBRANCH   1   2
BRANCH   1  16
ATOM     16  N29 FD1 A   1      -1.794  19.829  15.870  1.00  0.00    -0.301 N 
ATOM     17  H21 FD1 A   1      -1.814  19.161  15.127  1.00  0.00     0.173 HD
BRANCH  16  18
ATOM     18  S12 FD1 A   1      -1.619  21.498  15.526  1.00  0.00     0.259 S 
ATOM     19  O33 FD1 A   1      -1.520  22.234  16.742  1.00  0.00    -0.201 OA
ATOM     20  O32 FD1 A   1      -2.559  21.874  14.508  1.00  0.00    -0.201 OA
BRANCH  18  21
ATOM     21  C2  FD1 A   1      -0.070  21.506  14.778  1.00  0.00     0.080 A 
ATOM     22  C1  FD1 A   1       1.063  21.204  15.520  1.00  0.00     0.037 A 
ATOM     23  C9  FD1 A   1       2.341  21.228  14.914  1.00  0.00    -0.025 A 
ATOM     24  C10 FD1 A   1       2.466  21.579  13.523  1.00  0.00    -0.026 A 
ATOM     25  C8  FD1 A   1       3.500  20.904  15.687  1.00  0.00     0.012 A 
ATOM     26  C4  FD1 A   1       1.291  21.901  12.769  1.00  0.00     0.014 A 
ATOM     27  C5  FD1 A   1       3.772  21.598  12.943  1.00  0.00     0.012 A 
ATOM     28  C3  FD1 A   1       0.019  21.868  13.415  1.00  0.00     0.026 A 
ATOM     29  C6  FD1 A   1       4.932  21.268  13.739  1.00  0.00     0.001 A 
ATOM     30  C7  FD1 A   1       4.783  20.922  15.100  1.00  0.00     0.001 A 
ENDBRANCH  18  21
ENDBRANCH  16  18
ENDBRANCH   1  16
BRANCH   1  31
ATOM     31  C35 FD1 A   1      -0.650  18.668  17.710  1.00  0.00     0.244 C 
ATOM     32  N81 FD1 A   1       0.169  19.150  18.701  1.00  0.00    -0.336 N 
ATOM     33  C75 FD1 A   1       1.102  18.232  19.391  1.00  0.00     0.127 C 
ATOM     34  C71 FD1 A   1      -0.049  20.505  19.289  1.00  0.00     0.188 C 
ATOM     35  C74 FD1 A   1       2.479  18.917  19.298  1.00  0.00     0.020 C 
ATOM     36  C40 FD1 A   1       2.458  20.400  19.510  1.00  0.00     0.004 C 
ATOM     37  C72 FD1 A   1       1.311  21.241  19.205  1.00  0.00     0.036 C 
ATOM     38  O36 FD1 A   1      -0.425  17.619  17.106  1.00  0.00    -0.271 OA
BRANCH  34  39
ATOM     39  C91 FD1 A   1      -0.553  20.427  20.709  1.00  0.00     0.196 C 
ATOM     40  O93 FD1 A   1      -1.494  19.621  21.015  1.00  0.00    -0.646 OA
ATOM     41  O92 FD1 A   1      -0.061  21.172  21.610  1.00  0.00    -0.646 OA
ENDBRANCH  34  39
ENDBRANCH   1  31
TORSDOF 9
ENDMDL
MODEL 8
REMARK VINA RESULT:      -6.7      3.233      5.489
REMARK  9 active torsions:
REMARK  status: ('A' for Active; 'I' for Inactive)
REMARK    1  A    between atoms: C65_1  and  C34_10 
REMARK    2  A    between atoms: C61_6  and  C25_7 
REMARK    3  A    between atoms: C25_7  and  N43_8 
REMARK    4  A    between atoms: C34_10  and  C31_11 
REMARK    5  A    between atoms: C31_11  and  N29_23 
REMARK    6  A    between atoms: C31_11  and  C35_12 
REMARK       I    between atoms: C35_12  and  N81_14 
REMARK    7  A    between atoms: C71_15  and  C91_20 
REMARK    8  A    between atoms: N29_23  and  S12_24 
REMARK    9  A    between atoms: S12_24  and  C2_27 
ROOT
ATOM      1  C31 FD1 A   1       2.210  21.808  17.009  1.00  0.00     0.189 C 
ENDROOT
BRANCH   1   2
ATOM      2  C34 FD1 A   1       2.021  20.284  16.941  1.00  0.00     0.074 C 
BRANCH   2   3
ATOM      3  C65 FD1 A   1       0.844  19.768  17.789  1.00  0.00    -0.055 A 
ATOM      4  C64 FD1 A   1       0.684  20.178  19.138  1.00  0.00     0.007 A 
ATOM      5  C63 FD1 A   1      -0.394  19.700  19.901  1.00  0.00     0.002 A 
ATOM      6  C62 FD1 A   1      -1.321  18.809  19.320  1.00  0.00     0.015 A 
ATOM      7  C61 FD1 A   1      -1.168  18.394  17.975  1.00  0.00     0.007 A 
ATOM      8  C66 FD1 A   1      -0.088  18.875  17.225  1.00  0.00     0.022 A 
BRANCH   7   9
ATOM      9  C25 FD1 A   1      -2.151  17.442  17.351  1.00  0.00     0.102 C 
ATOM     10  N54 FD1 A   1      -2.009  17.079  16.096  1.00  0.00    -0.385 N 
ATOM     11  H7  FD1 A   1      -1.227  17.451  15.537  1.00  0.00     0.157 HD
ATOM     12  H8  FD1 A   1      -2.680  16.423  15.670  1.00  0.00     0.157 HD
BRANCH   9  13
ATOM     13  N43 FD1 A   1      -3.127  16.988  18.077  1.00  0.00    -0.385 N 
ATOM     14  H5  FD1 A   1      -3.405  17.486  18.935  1.00  0.00     0.157 HD
ATOM     15  H6  FD1 A   1      -3.623  16.130  17.796  1.00  0.00     0.157 HD
ENDBRANCH   9  13
ENDBRANCH   7   9
ENDBRANCH   2   3
ENDBRANCH   1   2
BRANCH   1  16
ATOM     16  N29 FD1 A   1       1.253  22.519  16.152  1.00  0.00    -0.301 N 
ATOM     17  H21 FD1 A   1       1.305  22.429  15.158  1.00  0.00     0.173 HD
BRANCH  16  18
ATOM     18  S12 FD1 A   1       0.047  23.503  16.869  1.00  0.00     0.259 S 
ATOM     19  O33 FD1 A   1      -0.184  24.651  16.059  1.00  0.00    -0.201 OA
ATOM     20  O32 FD1 A   1       0.311  23.629  18.274  1.00  0.00    -0.201 OA
BRANCH  18  21
ATOM     21  C2  FD1 A   1      -1.325  22.473  16.728  1.00  0.00     0.080 A 
ATOM     22  C1  FD1 A   1      -2.164  22.279  17.815  1.00  0.00     0.037 A 
ATOM     23  C9  FD1 A   1      -3.283  21.419  17.710  1.00  0.00    -0.025 A 
ATOM     24  C10 FD1 A   1      -3.542  20.734  16.471  1.00  0.00    -0.026 A 
ATOM     25  C8  FD1 A   1      -4.146  21.236  18.836  1.00  0.00     0.012 A 
ATOM     26  C4  FD1 A   1      -2.662  20.932  15.357  1.00  0.00     0.014 A 
ATOM     27  C5  FD1 A   1      -4.678  19.869  16.400  1.00  0.00     0.012 A 
ATOM     28  C3  FD1 A   1      -1.544  21.805  15.502  1.00  0.00     0.026 A 
ATOM     29  C6  FD1 A   1      -5.539  19.695  17.547  1.00  0.00     0.001 A 
ATOM     30  C7  FD1 A   1      -5.266  20.383  18.749  1.00  0.00     0.001 A 
ENDBRANCH  18  21
ENDBRANCH  16  18
ENDBRANCH   1  16
BRANCH   1  31
ATOM     31  C35 FD1 A   1       3.628  22.288  16.739  1.00  0.00     0.244 C 
ATOM     32  N81 FD1 A   1       4.439  22.803  17.721  1.00  0.00    -0.336 N 
ATOM     33  C75 FD1 A   1       5.904  22.833  17.521  1.00  0.00     0.127 C 
ATOM     34  C71 FD1 A   1       3.910  23.076  19.091  1.00  0.00     0.188 C 
ATOM     35  C74 FD1 A   1       6.318  24.288  17.808  1.00  0.00     0.020 C 
ATOM     36  C40 FD1 A   1       5.623  24.920  18.976  1.00  0.00     0.004 C 
ATOM     37  C72 FD1 A   1       4.291  24.541  19.421  1.00  0.00     0.036 C 
ATOM     38  O36 FD1 A   1       3.986  22.176  15.566  1.00  0.00    -0.271 OA
BRANCH  34  39
ATOM     39  C91 FD1 A   1       4.466  22.113  20.111  1.00  0.00     0.196 C 
ATOM     40  O93 FD1 A   1       4.111  20.887  20.100  1.00  0.00    -0.646 OA
ATOM     41  O92 FD1 A   1       5.277  22.513  21.000  1.00  0.00    -0.646 OA
ENDBRANCH  34  39
ENDBRANCH   1  31
TORSDOF 9
ENDMDL
MODEL 9
REMARK VINA RESULT:      -6.4      3.055      4.635
REMARK  9 active torsions:
REMARK  status: ('A' for Active; 'I' for Inactive)
REMARK    1  A    between atoms: C65_1  and  C34_10 
REMARK    2  A    between atoms: C61_6  and  C25_7 
REMARK    3  A    between atoms: C25_7  and  N43_8 
REMARK    4  A    between atoms: C34_10  and  C31_11 
REMARK    5  A    between atoms: C31_11  and  N29_23 
REMARK    6  A    between atoms: C31_11  and  C35_12 
REMARK       I    between atoms: C35_12  and  N81_14 
REMARK    7  A    between atoms: C71_15  and  C91_20 
REMARK    8  A    between atoms: N29_23  and  S12_24 
REMARK    9  A    between atoms: S12_24  and  C2_27 
ROOT
ATOM      1  C31 FD1 A   1       0.583  20.055  19.168  1.00  0.00     0.189 C 
ENDROOT
BRANCH   1   2
ATOM      2  C34 FD1 A   1      -0.358  19.042  19.839  1.00  0.00     0.074 C 
BRANCH   2   3
ATOM      3  C65 FD1 A   1      -1.724  18.911  19.142  1.00  0.00    -0.055 A 
ATOM      4  C64 FD1 A   1      -2.078  17.724  18.449  1.00  0.00     0.007 A 
ATOM      5  C63 FD1 A   1      -3.327  17.617  17.817  1.00  0.00     0.002 A 
ATOM      6  C62 FD1 A   1      -4.234  18.696  17.875  1.00  0.00     0.015 A 
ATOM      7  C61 FD1 A   1      -3.890  19.885  18.564  1.00  0.00     0.007 A 
ATOM      8  C66 FD1 A   1      -2.639  19.980  19.188  1.00  0.00     0.022 A 
BRANCH   7   9
ATOM      9  C25 FD1 A   1      -4.851  21.040  18.626  1.00  0.00     0.102 C 
ATOM     10  N54 FD1 A   1      -4.545  22.180  18.050  1.00  0.00    -0.385 N 
ATOM     11  H7  FD1 A   1      -3.645  22.286  17.560  1.00  0.00     0.157 HD
ATOM     12  H8  FD1 A   1      -5.206  22.970  18.089  1.00  0.00     0.157 HD
BRANCH   9  13
ATOM     13  N43 FD1 A   1      -5.978  20.880  19.250  1.00  0.00    -0.385 N 
ATOM     14  H5  FD1 A   1      -5.993  20.442  20.182  1.00  0.00     0.157 HD
ATOM     15  H6  FD1 A   1      -6.858  21.192  18.813  1.00  0.00     0.157 HD
ENDBRANCH   9  13
ENDBRANCH   7   9
ENDBRANCH   2   3
ENDBRANCH   1   2
BRANCH   1  16
ATOM     16  N29 FD1 A   1       0.534  19.961  17.703  1.00  0.00    -0.301 N 
ATOM     17  H21 FD1 A   1       0.785  19.109  17.245  1.00  0.00     0.173 HD
BRANCH  16  18
ATOM     18  S12 FD1 A   1       0.045  21.323  16.786  1.00  0.00     0.259 S 
ATOM     19  O33 FD1 A   1       0.086  22.493  17.598  1.00  0.00    -0.201 OA
ATOM     20  O32 FD1 A   1      -1.128  20.989  16.029  1.00  0.00    -0.201 OA
BRANCH  18  21
ATOM     21  C2  FD1 A   1       1.336  21.422  15.653  1.00  0.00     0.080 A 
ATOM     22  C1  FD1 A   1       2.602  20.974  16.001  1.00  0.00     0.037 A 
ATOM     23  C9  FD1 A   1       3.672  21.070  15.080  1.00  0.00    -0.025 A 
ATOM     24  C10 FD1 A   1       3.446  21.649  13.781  1.00  0.00    -0.026 A 
ATOM     25  C8  FD1 A   1       4.970  20.595  15.447  1.00  0.00     0.012 A 
ATOM     26  C4  FD1 A   1       2.137  22.120  13.436  1.00  0.00     0.014 A 
ATOM     27  C5  FD1 A   1       4.549  21.736  12.877  1.00  0.00     0.012 A 
ATOM     28  C3  FD1 A   1       1.084  22.007  14.393  1.00  0.00     0.026 A 
ATOM     29  C6  FD1 A   1       5.854  21.250  13.264  1.00  0.00     0.001 A 
ATOM     30  C7  FD1 A   1       6.049  20.683  14.542  1.00  0.00     0.001 A 
ENDBRANCH  18  21
ENDBRANCH  16  18
ENDBRANCH   1  16
BRANCH   1  31
ATOM     31  C35 FD1 A   1       2.023  20.012  19.658  1.00  0.00     0.244 C 
ATOM     32  N81 FD1 A   1       2.583  21.017  20.407  1.00  0.00    -0.336 N 
ATOM     33  C75 FD1 A   1       3.790  20.742  21.217  1.00  0.00     0.127 C 
ATOM     34  C71 FD1 A   1       1.854  22.299  20.644  1.00  0.00     0.188 C 
ATOM     35  C74 FD1 A   1       4.798  21.837  20.818  1.00  0.00     0.020 C 
ATOM     36  C40 FD1 A   1       4.206  23.202  20.641  1.00  0.00     0.004 C 
ATOM     37  C72 FD1 A   1       2.827  23.435  20.242  1.00  0.00     0.036 C 
ATOM     38  O36 FD1 A   1       2.641  19.000  19.326  1.00  0.00    -0.271 OA
BRANCH  34  39
ATOM     39  C91 FD1 A   1       1.404  22.432  22.078  1.00  0.00     0.196 C 
ATOM     40  O93 FD1 A   1       0.715  21.509  22.626  1.00  0.00    -0.646 OA
ATOM     41  O92 FD1 A   1       1.690  23.470  22.750  1.00  0.00    -0.646 OA
ENDBRANCH  34  39
ENDBRANCH   1  31
TORSDOF 9
ENDMDL
