MODEL 1
REMARK VINA RESULT:      -9.6      0.680      0.884
REMARK  11 active torsions:
REMARK  status: ('A' for Active; 'I' for Inactive)
REMARK    1  A    between atoms: C11_1  and  O1_34 
REMARK    2  A    between atoms: N18_8  and  C20_10 
REMARK    3  A    between atoms: C19_9  and  C21_11 
REMARK    4  A    between atoms: C20_10  and  C28_16 
REMARK       I    between atoms: C21_11  and  N22_12 
REMARK    5  A    between atoms: N22_12  and  C23_13 
REMARK    6  A    between atoms: C23_13  and  C24_14 
REMARK    7  A    between atoms: C31_17  and  C36_22 
REMARK    8  A    between atoms: C36_22  and  N37_23 
REMARK    9  A    between atoms: C40_26  and  N44_30 
REMARK   10  A    between atoms: O1_34  and  C1_35 
REMARK   11  A    between atoms: C1_35  and  C2_36 
ROOT
ATOM      1  C11 IMA A   1       2.652  10.135  24.584  1.00  0.00     0.070 A 
ATOM      2  C12 IMA A   1       3.535   9.532  25.509  1.00  0.00     0.039 A 
ATOM      3  C13 IMA A   1       4.638   8.824  25.036  1.00  0.00     0.033 A 
ATOM      4  C14 IMA A   1       4.856   8.748  23.638  1.00  0.00     0.045 A 
ATOM      5  C15 IMA A   1       3.988   9.390  22.702  1.00  0.00    -0.004 A 
ATOM      6  C16 IMA A   1       2.874  10.070  23.191  1.00  0.00     0.050 A 
ATOM      7  C17 IMA A   1       4.479   9.181  21.399  1.00  0.00     0.049 A 
ATOM      8  N18 IMA A   1       5.855   8.131  22.893  1.00  0.00    -0.337 N 
ATOM      9  C19 IMA A   1       5.640   8.391  21.571  1.00  0.00     0.104 A 
ENDROOT
BRANCH   9  10
ATOM     10  C21 IMA A   1       6.439   7.954  20.509  1.00  0.00     0.268 C 
ATOM     11  N22 IMA A   1       5.848   7.274  19.538  1.00  0.00    -0.351 N 
ATOM     12  H7  IMA A   1       4.890   6.987  19.571  1.00  0.00     0.163 HD
ATOM     13  O27 IMA A   1       7.638   8.213  20.472  1.00  0.00    -0.266 OA
BRANCH  11  14
ATOM     14  C23 IMA A   1       6.728   6.990  18.425  1.00  0.00     0.161 C 
BRANCH  14  15
ATOM     15  C24 IMA A   1       7.118   5.535  18.225  1.00  0.00    -0.040 A 
ATOM     16  C42 IMA A   1       6.661   4.887  17.064  1.00  0.00     0.011 A 
ATOM     17  C41 IMA A   1       7.117   3.586  16.768  1.00  0.00     0.038 A 
ATOM     18  C40 IMA A   1       8.005   2.918  17.636  1.00  0.00     0.135 A 
ATOM     19  C39 IMA A   1       8.402   3.570  18.825  1.00  0.00     0.038 A 
ATOM     20  C43 IMA A   1       7.959   4.873  19.125  1.00  0.00     0.011 A 
BRANCH  18  21
ATOM     21  N44 IMA A   1       8.477   1.601  17.259  1.00  0.00    -0.049 N 
ATOM     22  C45 IMA A   1       9.371   1.770  16.111  1.00  0.00     0.278 C 
ATOM     23  C49 IMA A   1       7.360   0.716  16.881  1.00  0.00     0.278 C 
ATOM     24  C53 IMA A   1       9.230   0.774  18.217  1.00  0.00     0.278 C 
ENDBRANCH  18  21
ENDBRANCH  14  15
ENDBRANCH  11  14
ENDBRANCH   9  10
BRANCH   8  25
ATOM     25  C20 IMA A   1       6.864   7.212  23.441  1.00  0.00     0.168 C 
BRANCH  25  26
ATOM     26  C28 IMA A   1       8.083   7.884  23.989  1.00  0.00    -0.039 A 
ATOM     27  C32 IMA A   1       8.521   7.377  25.213  1.00  0.00     0.024 A 
ATOM     28  C31 IMA A   1       9.730   7.864  25.769  1.00  0.00     0.007 A 
ATOM     29  C35 IMA A   1      10.456   8.888  25.094  1.00  0.00     0.015 A 
ATOM     30  C34 IMA A   1       9.986   9.425  23.881  1.00  0.00     0.002 A 
ATOM     31  C33 IMA A   1       8.794   8.914  23.326  1.00  0.00     0.009 A 
BRANCH  28  32
ATOM     32  C36 IMA A   1      10.155   7.255  27.047  1.00  0.00     0.102 C 
ATOM     33  N38 IMA A   1      11.438   7.272  27.428  1.00  0.00    -0.385 N 
ATOM     34  H16 IMA A   1      12.147   7.717  26.829  1.00  0.00     0.157 HD
ATOM     35  H17 IMA A   1      11.716   6.840  28.320  1.00  0.00     0.157 HD
BRANCH  32  36
ATOM     36  N37 IMA A   1       9.166   6.691  27.776  1.00  0.00    -0.385 N 
ATOM     37  H14 IMA A   1       9.349   6.382  28.741  1.00  0.00     0.157 HD
ATOM     38  H15 IMA A   1       8.228   6.572  27.367  1.00  0.00     0.157 HD
ENDBRANCH  32  36
ENDBRANCH  28  32
ENDBRANCH  25  26
ENDBRANCH   8  25
BRANCH   1  39
ATOM     39  O1  IMA A   1       1.548  10.780  25.108  1.00  0.00    -0.347 OA
BRANCH  39  40
ATOM     40  C1  IMA A   1       0.249  10.265  24.849  1.00  0.00     0.214 C 
BRANCH  40  41
ATOM     41  C2  IMA A   1      -0.633  11.459  25.039  1.00  0.00    -0.034 A 
ATOM     42  C3  IMA A   1      -1.578  11.427  26.070  1.00  0.00     0.009 A 
ATOM     43  C4  IMA A   1      -2.374  12.567  26.308  1.00  0.00     0.001 A 
ATOM     44  C5  IMA A   1      -2.208  13.711  25.500  1.00  0.00     0.000 A 
ATOM     45  C6  IMA A   1      -1.278  13.734  24.446  1.00  0.00     0.001 A 
ATOM     46  C7  IMA A   1      -0.490  12.600  24.210  1.00  0.00     0.009 A 
ENDBRANCH  40  41
ENDBRANCH  39  40
ENDBRANCH   1  39
TORSDOF 11
ENDMDL
MODEL 2
REMARK VINA RESULT:      -9.6      1.671      2.125
REMARK  11 active torsions:
REMARK  status: ('A' for Active; 'I' for Inactive)
REMARK    1  A    between atoms: C11_1  and  O1_34 
REMARK    2  A    between atoms: N18_8  and  C20_10 
REMARK    3  A    between atoms: C19_9  and  C21_11 
REMARK    4  A    between atoms: C20_10  and  C28_16 
REMARK       I    between atoms: C21_11  and  N22_12 
REMARK    5  A    between atoms: N22_12  and  C23_13 
REMARK    6  A    between atoms: C23_13  and  C24_14 
REMARK    7  A    between atoms: C31_17  and  C36_22 
REMARK    8  A    between atoms: C36_22  and  N37_23 
REMARK    9  A    between atoms: C40_26  and  N44_30 
REMARK   10  A    between atoms: O1_34  and  C1_35 
REMARK   11  A    between atoms: C1_35  and  C2_36 
ROOT
ATOM      1  C11 IMA A   1       2.678  10.166  24.614  1.00  0.00     0.070 A 
ATOM      2  C12 IMA A   1       3.561   9.560  25.537  1.00  0.00     0.039 A 
ATOM      3  C13 IMA A   1       4.659   8.845  25.061  1.00  0.00     0.033 A 
ATOM      4  C14 IMA A   1       4.871   8.766  23.663  1.00  0.00     0.045 A 
ATOM      5  C15 IMA A   1       4.003   9.412  22.729  1.00  0.00    -0.004 A 
ATOM      6  C16 IMA A   1       2.895  10.098  23.221  1.00  0.00     0.050 A 
ATOM      7  C17 IMA A   1       4.489   9.199  21.424  1.00  0.00     0.049 A 
ATOM      8  N18 IMA A   1       5.865   8.143  22.914  1.00  0.00    -0.337 N 
ATOM      9  C19 IMA A   1       5.647   8.403  21.594  1.00  0.00     0.104 A 
ENDROOT
BRANCH   9  10
ATOM     10  C21 IMA A   1       6.439   7.960  20.529  1.00  0.00     0.268 C 
ATOM     11  N22 IMA A   1       5.841   7.286  19.559  1.00  0.00    -0.351 N 
ATOM     12  H7  IMA A   1       4.881   7.005  19.594  1.00  0.00     0.163 HD
ATOM     13  O27 IMA A   1       7.640   8.211  20.489  1.00  0.00    -0.266 OA
BRANCH  11  14
ATOM     14  C23 IMA A   1       6.716   6.995  18.444  1.00  0.00     0.161 C 
BRANCH  14  15
ATOM     15  C24 IMA A   1       7.108   5.539  18.252  1.00  0.00    -0.040 A 
ATOM     16  C42 IMA A   1       6.652   4.885  17.095  1.00  0.00     0.011 A 
ATOM     17  C41 IMA A   1       7.109   3.582  16.806  1.00  0.00     0.038 A 
ATOM     18  C40 IMA A   1       7.998   2.920  17.677  1.00  0.00     0.135 A 
ATOM     19  C39 IMA A   1       8.395   3.579  18.863  1.00  0.00     0.038 A 
ATOM     20  C43 IMA A   1       7.950   4.884  19.155  1.00  0.00     0.011 A 
BRANCH  18  21
ATOM     21  N44 IMA A   1       8.471   1.602  17.307  1.00  0.00    -0.049 N 
ATOM     22  C45 IMA A   1       9.367   1.766  16.161  1.00  0.00     0.278 C 
ATOM     23  C49 IMA A   1       7.355   0.714  16.932  1.00  0.00     0.278 C 
ATOM     24  C53 IMA A   1       9.224   0.780  18.271  1.00  0.00     0.278 C 
ENDBRANCH  18  21
ENDBRANCH  14  15
ENDBRANCH  11  14
ENDBRANCH   9  10
BRANCH   8  25
ATOM     25  C20 IMA A   1       6.871   7.220  23.460  1.00  0.00     0.168 C 
BRANCH  25  26
ATOM     26  C28 IMA A   1       8.091   7.887  24.013  1.00  0.00    -0.039 A 
ATOM     27  C32 IMA A   1       8.523   7.378  25.238  1.00  0.00     0.024 A 
ATOM     28  C31 IMA A   1       9.732   7.860  25.798  1.00  0.00     0.007 A 
ATOM     29  C35 IMA A   1      10.464   8.882  25.125  1.00  0.00     0.015 A 
ATOM     30  C34 IMA A   1      10.001   9.421  23.911  1.00  0.00     0.002 A 
ATOM     31  C33 IMA A   1       8.808   8.915  23.352  1.00  0.00     0.009 A 
BRANCH  28  32
ATOM     32  C36 IMA A   1      10.150   7.250  27.077  1.00  0.00     0.102 C 
ATOM     33  N38 IMA A   1      11.433   7.261  27.461  1.00  0.00    -0.385 N 
ATOM     34  H16 IMA A   1      12.145   7.703  26.865  1.00  0.00     0.157 HD
ATOM     35  H17 IMA A   1      11.706   6.828  28.355  1.00  0.00     0.157 HD
BRANCH  32  36
ATOM     36  N37 IMA A   1       9.157   6.690  27.803  1.00  0.00    -0.385 N 
ATOM     37  H14 IMA A   1       8.235   7.147  27.851  1.00  0.00     0.157 HD
ATOM     38  H15 IMA A   1       9.321   5.807  28.307  1.00  0.00     0.157 HD
ENDBRANCH  32  36
ENDBRANCH  28  32
ENDBRANCH  25  26
ENDBRANCH   8  25
BRANCH   1  39
ATOM     39  O1  IMA A   1       1.579  10.817  25.141  1.00  0.00    -0.347 OA
BRANCH  39  40
ATOM     40  C1  IMA A   1       0.356  10.821  24.418  1.00  0.00     0.214 C 
BRANCH  40  41
ATOM     41  C2  IMA A   1      -0.143   9.420  24.589  1.00  0.00    -0.034 A 
ATOM     42  C3  IMA A   1      -0.543   8.715  23.448  1.00  0.00     0.009 A 
ATOM     43  C4  IMA A   1      -0.954   7.372  23.580  1.00  0.00     0.001 A 
ATOM     44  C5  IMA A   1      -0.961   6.769  24.855  1.00  0.00     0.000 A 
ATOM     45  C6  IMA A   1      -0.585   7.485  26.005  1.00  0.00     0.001 A 
ATOM     46  C7  IMA A   1      -0.180   8.819  25.873  1.00  0.00     0.009 A 
ENDBRANCH  40  41
ENDBRANCH  39  40
ENDBRANCH   1  39
TORSDOF 11
ENDMDL
MODEL 3
REMARK VINA RESULT:      -8.2      1.456      2.223
REMARK  11 active torsions:
REMARK  status: ('A' for Active; 'I' for Inactive)
REMARK    1  A    between atoms: C11_1  and  O1_34 
REMARK    2  A    between atoms: N18_8  and  C20_10 
REMARK    3  A    between atoms: C19_9  and  C21_11 
REMARK    4  A    between atoms: C20_10  and  C28_16 
REMARK       I    between atoms: C21_11  and  N22_12 
REMARK    5  A    between atoms: N22_12  and  C23_13 
REMARK    6  A    between atoms: C23_13  and  C24_14 
REMARK    7  A    between atoms: C31_17  and  C36_22 
REMARK    8  A    between atoms: C36_22  and  N37_23 
REMARK    9  A    between atoms: C40_26  and  N44_30 
REMARK   10  A    between atoms: O1_34  and  C1_35 
REMARK   11  A    between atoms: C1_35  and  C2_36 
ROOT
ATOM      1  C11 IMA A   1       2.400  10.333  23.824  1.00  0.00     0.070 A 
ATOM      2  C12 IMA A   1       3.145  10.098  25.002  1.00  0.00     0.039 A 
ATOM      3  C13 IMA A   1       4.293   9.310  24.936  1.00  0.00     0.033 A 
ATOM      4  C14 IMA A   1       4.693   8.785  23.683  1.00  0.00     0.045 A 
ATOM      5  C15 IMA A   1       3.963   9.053  22.484  1.00  0.00    -0.004 A 
ATOM      6  C16 IMA A   1       2.803   9.819  22.572  1.00  0.00     0.050 A 
ATOM      7  C17 IMA A   1       4.620   8.442  21.398  1.00  0.00     0.049 A 
ATOM      8  N18 IMA A   1       5.774   7.989  23.319  1.00  0.00    -0.337 N 
ATOM      9  C19 IMA A   1       5.739   7.792  21.970  1.00  0.00     0.104 A 
ENDROOT
BRANCH   9  10
ATOM     10  C21 IMA A   1       6.666   7.055  21.225  1.00  0.00     0.268 C 
ATOM     11  N22 IMA A   1       6.862   7.414  19.965  1.00  0.00    -0.351 N 
ATOM     12  H7  IMA A   1       6.324   8.119  19.503  1.00  0.00     0.163 HD
ATOM     13  O27 IMA A   1       7.288   6.126  21.731  1.00  0.00    -0.266 OA
BRANCH  11  14
ATOM     14  C23 IMA A   1       7.935   6.683  19.326  1.00  0.00     0.161 C 
BRANCH  14  15
ATOM     15  C24 IMA A   1       7.528   5.487  18.480  1.00  0.00    -0.040 A 
ATOM     16  C42 IMA A   1       8.231   4.284  18.665  1.00  0.00     0.011 A 
ATOM     17  C41 IMA A   1       7.794   3.115  18.008  1.00  0.00     0.038 A 
ATOM     18  C40 IMA A   1       6.676   3.145  17.150  1.00  0.00     0.135 A 
ATOM     19  C39 IMA A   1       6.023   4.380  16.938  1.00  0.00     0.038 A 
ATOM     20  C43 IMA A   1       6.448   5.551  17.596  1.00  0.00     0.011 A 
BRANCH  18  21
ATOM     21  N44 IMA A   1       6.245   1.904  16.538  1.00  0.00    -0.049 N 
ATOM     22  C45 IMA A   1       5.237   1.311  17.419  1.00  0.00     0.278 C 
ATOM     23  C49 IMA A   1       7.368   0.963  16.377  1.00  0.00     0.278 C 
ATOM     24  C53 IMA A   1       5.633   1.906  15.198  1.00  0.00     0.278 C 
ENDBRANCH  18  21
ENDBRANCH  14  15
ENDBRANCH  11  14
ENDBRANCH   9  10
BRANCH   8  25
ATOM     25  C20 IMA A   1       6.691   7.337  24.266  1.00  0.00     0.168 C 
BRANCH  25  26
ATOM     26  C28 IMA A   1       8.003   8.034  24.440  1.00  0.00    -0.039 A 
ATOM     27  C32 IMA A   1       8.794   7.528  25.472  1.00  0.00     0.024 A 
ATOM     28  C31 IMA A   1      10.102   8.040  25.654  1.00  0.00     0.007 A 
ATOM     29  C35 IMA A   1      10.574   9.088  24.811  1.00  0.00     0.015 A 
ATOM     30  C34 IMA A   1       9.757   9.623  23.799  1.00  0.00     0.002 A 
ATOM     31  C33 IMA A   1       8.465   9.087  23.612  1.00  0.00     0.009 A 
BRANCH  28  32
ATOM     32  C36 IMA A   1      10.898   7.432  26.741  1.00  0.00     0.102 C 
ATOM     33  N38 IMA A   1      10.306   6.860  27.796  1.00  0.00    -0.385 N 
ATOM     34  H16 IMA A   1       9.278   6.835  27.859  1.00  0.00     0.157 HD
ATOM     35  H17 IMA A   1      10.877   6.444  28.545  1.00  0.00     0.157 HD
BRANCH  32  36
ATOM     36  N37 IMA A   1      12.239   7.505  26.585  1.00  0.00    -0.385 N 
ATOM     37  H14 IMA A   1      12.761   8.300  26.982  1.00  0.00     0.157 HD
ATOM     38  H15 IMA A   1      12.739   6.767  26.069  1.00  0.00     0.157 HD
ENDBRANCH  32  36
ENDBRANCH  28  32
ENDBRANCH  25  26
ENDBRANCH   8  25
BRANCH   1  39
ATOM     39  O1  IMA A   1       1.243  11.078  23.958  1.00  0.00    -0.347 OA
BRANCH  39  40
ATOM     40  C1  IMA A   1       0.114  10.767  23.153  1.00  0.00     0.214 C 
BRANCH  40  41
ATOM     41  C2  IMA A   1      -0.176  12.063  22.462  1.00  0.00    -0.034 A 
ATOM     42  C3  IMA A   1      -1.148  12.905  23.015  1.00  0.00     0.009 A 
ATOM     43  C4  IMA A   1      -1.390  14.159  22.417  1.00  0.00     0.001 A 
ATOM     44  C5  IMA A   1      -0.656  14.538  21.273  1.00  0.00     0.000 A 
ATOM     45  C6  IMA A   1       0.301  13.681  20.701  1.00  0.00     0.001 A 
ATOM     46  C7  IMA A   1       0.538  12.434  21.295  1.00  0.00     0.009 A 
ENDBRANCH  40  41
ENDBRANCH  39  40
ENDBRANCH   1  39
TORSDOF 11
ENDMDL
MODEL 4
REMARK VINA RESULT:      -8.1      2.988      4.134
REMARK  11 active torsions:
REMARK  status: ('A' for Active; 'I' for Inactive)
REMARK    1  A    between atoms: C11_1  and  O1_34 
REMARK    2  A    between atoms: N18_8  and  C20_10 
REMARK    3  A    between atoms: C19_9  and  C21_11 
REMARK    4  A    between atoms: C20_10  and  C28_16 
REMARK       I    between atoms: C21_11  and  N22_12 
REMARK    5  A    between atoms: N22_12  and  C23_13 
REMARK    6  A    between atoms: C23_13  and  C24_14 
REMARK    7  A    between atoms: C31_17  and  C36_22 
REMARK    8  A    between atoms: C36_22  and  N37_23 
REMARK    9  A    between atoms: C40_26  and  N44_30 
REMARK   10  A    between atoms: O1_34  and  C1_35 
REMARK   11  A    between atoms: C1_35  and  C2_36 
ROOT
ATOM      1  C11 IMA A   1       1.604   7.968  24.988  1.00  0.00     0.070 A 
ATOM      2  C12 IMA A   1       2.999   8.048  25.203  1.00  0.00     0.039 A 
ATOM      3  C13 IMA A   1       3.855   7.283  24.414  1.00  0.00     0.033 A 
ATOM      4  C14 IMA A   1       3.304   6.461  23.401  1.00  0.00     0.045 A 
ATOM      5  C15 IMA A   1       1.897   6.408  23.154  1.00  0.00    -0.004 A 
ATOM      6  C16 IMA A   1       1.053   7.158  23.971  1.00  0.00     0.050 A 
ATOM      7  C17 IMA A   1       1.651   5.550  22.066  1.00  0.00     0.049 A 
ATOM      8  N18 IMA A   1       3.900   5.613  22.474  1.00  0.00    -0.337 N 
ATOM      9  C19 IMA A   1       2.929   5.079  21.680  1.00  0.00     0.104 A 
ENDROOT
BRANCH   9  10
ATOM     10  C21 IMA A   1       3.134   4.188  20.621  1.00  0.00     0.268 C 
ATOM     11  N22 IMA A   1       3.521   2.958  20.921  1.00  0.00    -0.351 N 
ATOM     12  H7  IMA A   1       3.756   2.665  21.848  1.00  0.00     0.163 HD
ATOM     13  O27 IMA A   1       2.938   4.533  19.459  1.00  0.00    -0.266 OA
BRANCH  11  14
ATOM     14  C23 IMA A   1       3.569   2.080  19.772  1.00  0.00     0.161 C 
BRANCH  14  15
ATOM     15  C24 IMA A   1       4.946   1.803  19.189  1.00  0.00    -0.040 A 
ATOM     16  C42 IMA A   1       5.027   1.473  17.825  1.00  0.00     0.011 A 
ATOM     17  C41 IMA A   1       6.291   1.351  17.213  1.00  0.00     0.038 A 
ATOM     18  C40 IMA A   1       7.474   1.531  17.958  1.00  0.00     0.135 A 
ATOM     19  C39 IMA A   1       7.364   1.805  19.340  1.00  0.00     0.038 A 
ATOM     20  C43 IMA A   1       6.105   1.938  19.959  1.00  0.00     0.011 A 
BRANCH  18  21
ATOM     21  N44 IMA A   1       8.745   1.439  17.267  1.00  0.00    -0.049 N 
ATOM     22  C45 IMA A   1       9.719   2.211  18.041  1.00  0.00     0.278 C 
ATOM     23  C49 IMA A   1       8.657   1.990  15.903  1.00  0.00     0.278 C 
ATOM     24  C53 IMA A   1       9.379   0.129  17.043  1.00  0.00     0.278 C 
ENDBRANCH  18  21
ENDBRANCH  14  15
ENDBRANCH  11  14
ENDBRANCH   9  10
BRANCH   8  25
ATOM     25  C20 IMA A   1       5.321   5.232  22.479  1.00  0.00     0.168 C 
BRANCH  25  26
ATOM     26  C28 IMA A   1       6.161   5.958  21.476  1.00  0.00    -0.039 A 
ATOM     27  C32 IMA A   1       6.869   7.043  21.992  1.00  0.00     0.024 A 
ATOM     28  C31 IMA A   1       7.781   7.733  21.157  1.00  0.00     0.007 A 
ATOM     29  C35 IMA A   1       7.932   7.335  19.796  1.00  0.00     0.015 A 
ATOM     30  C34 IMA A   1       7.184   6.267  19.269  1.00  0.00     0.002 A 
ATOM     31  C33 IMA A   1       6.297   5.572  20.119  1.00  0.00     0.009 A 
BRANCH  28  32
ATOM     32  C36 IMA A   1       8.527   8.847  21.779  1.00  0.00     0.102 C 
ATOM     33  N38 IMA A   1       8.054   9.476  22.862  1.00  0.00    -0.385 N 
ATOM     34  H16 IMA A   1       7.159   9.183  23.278  1.00  0.00     0.157 HD
ATOM     35  H17 IMA A   1       8.586  10.252  23.280  1.00  0.00     0.157 HD
BRANCH  32  36
ATOM     36  N37 IMA A   1       9.692   9.171  21.175  1.00  0.00    -0.385 N 
ATOM     37  H14 IMA A   1       9.747   9.204  20.147  1.00  0.00     0.157 HD
ATOM     38  H15 IMA A   1      10.524   9.386  21.742  1.00  0.00     0.157 HD
ENDBRANCH  32  36
ENDBRANCH  28  32
ENDBRANCH  25  26
ENDBRANCH   8  25
BRANCH   1  39
ATOM     39  O1  IMA A   1       0.801   8.709  25.834  1.00  0.00    -0.347 OA
BRANCH  39  40
ATOM     40  C1  IMA A   1      -0.606   8.720  25.630  1.00  0.00     0.214 C 
BRANCH  40  41
ATOM     41  C2  IMA A   1      -0.938  10.180  25.648  1.00  0.00    -0.034 A 
ATOM     42  C3  IMA A   1      -2.092  10.588  26.327  1.00  0.00     0.009 A 
ATOM     43  C4  IMA A   1      -2.388  11.964  26.412  1.00  0.00     0.001 A 
ATOM     44  C5  IMA A   1      -1.523  12.900  25.807  1.00  0.00     0.000 A 
ATOM     45  C6  IMA A   1      -0.378  12.489  25.102  1.00  0.00     0.001 A 
ATOM     46  C7  IMA A   1      -0.087  11.121  25.016  1.00  0.00     0.009 A 
ENDBRANCH  40  41
ENDBRANCH  39  40
ENDBRANCH   1  39
TORSDOF 11
ENDMDL
MODEL 5
REMARK VINA RESULT:      -8.0      2.451      3.617
REMARK  11 active torsions:
REMARK  status: ('A' for Active; 'I' for Inactive)
REMARK    1  A    between atoms: C11_1  and  O1_34 
REMARK    2  A    between atoms: N18_8  and  C20_10 
REMARK    3  A    between atoms: C19_9  and  C21_11 
REMARK    4  A    between atoms: C20_10  and  C28_16 
REMARK       I    between atoms: C21_11  and  N22_12 
REMARK    5  A    between atoms: N22_12  and  C23_13 
REMARK    6  A    between atoms: C23_13  and  C24_14 
REMARK    7  A    between atoms: C31_17  and  C36_22 
REMARK    8  A    between atoms: C36_22  and  N37_23 
REMARK    9  A    between atoms: C40_26  and  N44_30 
REMARK   10  A    between atoms: O1_34  and  C1_35 
REMARK   11  A    between atoms: C1_35  and  C2_36 
ROOT
ATOM      1  C11 IMA A   1       2.067  10.698  24.625  1.00  0.00     0.070 A 
ATOM      2  C12 IMA A   1       3.362  10.661  25.193  1.00  0.00     0.039 A 
ATOM      3  C13 IMA A   1       4.169   9.547  24.975  1.00  0.00     0.033 A 
ATOM      4  C14 IMA A   1       3.677   8.490  24.171  1.00  0.00     0.045 A 
ATOM      5  C15 IMA A   1       2.385   8.542  23.563  1.00  0.00    -0.004 A 
ATOM      6  C16 IMA A   1       1.579   9.651  23.814  1.00  0.00     0.050 A 
ATOM      7  C17 IMA A   1       2.191   7.381  22.790  1.00  0.00     0.049 A 
ATOM      8  N18 IMA A   1       4.249   7.283  23.782  1.00  0.00    -0.337 N 
ATOM      9  C19 IMA A   1       3.378   6.629  22.961  1.00  0.00     0.104 A 
ENDROOT
BRANCH   9  10
ATOM     10  C21 IMA A   1       3.598   5.388  22.355  1.00  0.00     0.268 C 
ATOM     11  N22 IMA A   1       4.648   4.687  22.756  1.00  0.00    -0.351 N 
ATOM     12  H7  IMA A   1       5.330   5.036  23.398  1.00  0.00     0.163 HD
ATOM     13  O27 IMA A   1       2.830   4.959  21.499  1.00  0.00    -0.266 OA
BRANCH  11  14
ATOM     14  C23 IMA A   1       4.707   3.365  22.170  1.00  0.00     0.161 C 
BRANCH  14  15
ATOM     15  C24 IMA A   1       5.766   3.145  21.103  1.00  0.00    -0.040 A 
ATOM     16  C42 IMA A   1       5.912   1.848  20.581  1.00  0.00     0.011 A 
ATOM     17  C41 IMA A   1       6.780   1.629  19.491  1.00  0.00     0.038 A 
ATOM     18  C40 IMA A   1       7.521   2.692  18.935  1.00  0.00     0.135 A 
ATOM     19  C39 IMA A   1       7.399   3.975  19.516  1.00  0.00     0.038 A 
ATOM     20  C43 IMA A   1       6.528   4.204  20.599  1.00  0.00     0.011 A 
BRANCH  18  21
ATOM     21  N44 IMA A   1       8.362   2.419  17.787  1.00  0.00    -0.049 N 
ATOM     22  C45 IMA A   1       7.960   3.341  16.723  1.00  0.00     0.278 C 
ATOM     23  C49 IMA A   1       8.199   1.031  17.318  1.00  0.00     0.278 C 
ATOM     24  C53 IMA A   1       9.825   2.555  17.884  1.00  0.00     0.278 C 
ENDBRANCH  18  21
ENDBRANCH  14  15
ENDBRANCH  11  14
ENDBRANCH   9  10
BRANCH   8  25
ATOM     25  C20 IMA A   1       5.508   6.741  24.316  1.00  0.00     0.168 C 
BRANCH  25  26
ATOM     26  C28 IMA A   1       6.738   7.451  23.848  1.00  0.00    -0.039 A 
ATOM     27  C32 IMA A   1       6.950   7.393  22.470  1.00  0.00     0.024 A 
ATOM     28  C31 IMA A   1       8.023   8.124  21.905  1.00  0.00     0.007 A 
ATOM     29  C35 IMA A   1       8.892   8.872  22.753  1.00  0.00     0.015 A 
ATOM     30  C34 IMA A   1       8.699   8.892  24.146  1.00  0.00     0.002 A 
ATOM     31  C33 IMA A   1       7.611   8.180  24.693  1.00  0.00     0.009 A 
BRANCH  28  32
ATOM     32  C36 IMA A   1       8.166   8.049  20.436  1.00  0.00     0.102 C 
ATOM     33  N38 IMA A   1       7.145   7.664  19.661  1.00  0.00    -0.385 N 
ATOM     34  H16 IMA A   1       6.240   7.417  20.086  1.00  0.00     0.157 HD
ATOM     35  H17 IMA A   1       7.264   7.614  18.639  1.00  0.00     0.157 HD
BRANCH  32  36
ATOM     36  N37 IMA A   1       9.383   8.388  19.956  1.00  0.00    -0.385 N 
ATOM     37  H14 IMA A   1       9.968   9.065  20.467  1.00  0.00     0.157 HD
ATOM     38  H15 IMA A   1       9.726   7.970  19.079  1.00  0.00     0.157 HD
ENDBRANCH  32  36
ENDBRANCH  28  32
ENDBRANCH  25  26
ENDBRANCH   8  25
BRANCH   1  39
ATOM     39  O1  IMA A   1       1.292  11.804  24.917  1.00  0.00    -0.347 OA
BRANCH  39  40
ATOM     40  C1  IMA A   1      -0.115  11.656  25.053  1.00  0.00     0.214 C 
BRANCH  40  41
ATOM     41  C2  IMA A   1      -0.656  12.732  24.164  1.00  0.00    -0.034 A 
ATOM     42  C3  IMA A   1      -1.428  13.745  24.745  1.00  0.00     0.009 A 
ATOM     43  C4  IMA A   1      -1.893  14.803  23.937  1.00  0.00     0.001 A 
ATOM     44  C5  IMA A   1      -1.578  14.818  22.562  1.00  0.00     0.000 A 
ATOM     45  C6  IMA A   1      -0.827  13.786  21.972  1.00  0.00     0.001 A 
ATOM     46  C7  IMA A   1      -0.368  12.734  22.776  1.00  0.00     0.009 A 
ENDBRANCH  40  41
ENDBRANCH  39  40
ENDBRANCH   1  39
TORSDOF 11
ENDMDL
MODEL 6
REMARK VINA RESULT:      -8.0      2.636      3.406
REMARK  11 active torsions:
REMARK  status: ('A' for Active; 'I' for Inactive)
REMARK    1  A    between atoms: C11_1  and  O1_34 
REMARK    2  A    between atoms: N18_8  and  C20_10 
REMARK    3  A    between atoms: C19_9  and  C21_11 
REMARK    4  A    between atoms: C20_10  and  C28_16 
REMARK       I    between atoms: C21_11  and  N22_12 
REMARK    5  A    between atoms: N22_12  and  C23_13 
REMARK    6  A    between atoms: C23_13  and  C24_14 
REMARK    7  A    between atoms: C31_17  and  C36_22 
REMARK    8  A    between atoms: C36_22  and  N37_23 
REMARK    9  A    between atoms: C40_26  and  N44_30 
REMARK   10  A    between atoms: O1_34  and  C1_35 
REMARK   11  A    between atoms: C1_35  and  C2_36 
ROOT
ATOM      1  C11 IMA A   1       1.244  10.029  22.036  1.00  0.00     0.070 A 
ATOM      2  C12 IMA A   1       1.982  10.480  23.155  1.00  0.00     0.039 A 
ATOM      3  C13 IMA A   1       3.061   9.724  23.609  1.00  0.00     0.033 A 
ATOM      4  C14 IMA A   1       3.403   8.534  22.921  1.00  0.00     0.045 A 
ATOM      5  C15 IMA A   1       2.685   8.097  21.766  1.00  0.00    -0.004 A 
ATOM      6  C16 IMA A   1       1.591   8.849  21.342  1.00  0.00     0.050 A 
ATOM      7  C17 IMA A   1       3.278   6.919  21.273  1.00  0.00     0.049 A 
ATOM      8  N18 IMA A   1       4.412   7.602  23.136  1.00  0.00    -0.337 N 
ATOM      9  C19 IMA A   1       4.347   6.651  22.161  1.00  0.00     0.104 A 
ENDROOT
BRANCH   9  10
ATOM     10  C21 IMA A   1       5.202   5.553  22.028  1.00  0.00     0.268 C 
ATOM     11  N22 IMA A   1       6.344   5.741  21.384  1.00  0.00    -0.351 N 
ATOM     12  H7  IMA A   1       6.581   6.594  20.919  1.00  0.00     0.163 HD
ATOM     13  O27 IMA A   1       4.911   4.463  22.511  1.00  0.00    -0.266 OA
BRANCH  11  14
ATOM     14  C23 IMA A   1       7.215   4.586  21.421  1.00  0.00     0.161 C 
BRANCH  14  15
ATOM     15  C24 IMA A   1       7.271   3.740  20.160  1.00  0.00    -0.040 A 
ATOM     16  C42 IMA A   1       7.915   4.282  19.034  1.00  0.00     0.011 A 
ATOM     17  C41 IMA A   1       8.117   3.479  17.893  1.00  0.00     0.038 A 
ATOM     18  C40 IMA A   1       7.658   2.146  17.859  1.00  0.00     0.135 A 
ATOM     19  C39 IMA A   1       6.963   1.645  18.983  1.00  0.00     0.038 A 
ATOM     20  C43 IMA A   1       6.765   2.437  20.130  1.00  0.00     0.011 A 
BRANCH  18  21
ATOM     21  N44 IMA A   1       7.933   1.353  16.678  1.00  0.00    -0.049 N 
ATOM     22  C45 IMA A   1       9.095   0.514  16.978  1.00  0.00     0.278 C 
ATOM     23  C49 IMA A   1       8.233   2.206  15.514  1.00  0.00     0.278 C 
ATOM     24  C53 IMA A   1       6.917   0.429  16.145  1.00  0.00     0.278 C 
ENDBRANCH  18  21
ENDBRANCH  14  15
ENDBRANCH  11  14
ENDBRANCH   9  10
BRANCH   8  25
ATOM     25  C20 IMA A   1       5.284   7.568  24.320  1.00  0.00     0.168 C 
BRANCH  25  26
ATOM     26  C28 IMA A   1       6.626   8.198  24.122  1.00  0.00    -0.039 A 
ATOM     27  C32 IMA A   1       7.569   7.869  25.096  1.00  0.00     0.024 A 
ATOM     28  C31 IMA A   1       8.903   8.320  24.946  1.00  0.00     0.007 A 
ATOM     29  C35 IMA A   1       9.252   9.133  23.829  1.00  0.00     0.015 A 
ATOM     30  C34 IMA A   1       8.288   9.497  22.872  1.00  0.00     0.002 A 
ATOM     31  C33 IMA A   1       6.968   9.021  23.020  1.00  0.00     0.009 A 
BRANCH  28  32
ATOM     32  C36 IMA A   1       9.858   7.902  25.994  1.00  0.00     0.102 C 
ATOM     33  N38 IMA A   1      11.180   7.994  25.802  1.00  0.00    -0.385 N 
ATOM     34  H16 IMA A   1      11.546   8.365  24.915  1.00  0.00     0.157 HD
ATOM     35  H17 IMA A   1      11.829   7.695  26.543  1.00  0.00     0.157 HD
BRANCH  32  36
ATOM     36  N37 IMA A   1       9.298   7.426  27.129  1.00  0.00    -0.385 N 
ATOM     37  H14 IMA A   1       9.816   6.757  27.717  1.00  0.00     0.157 HD
ATOM     38  H15 IMA A   1       8.355   7.733  27.407  1.00  0.00     0.157 HD
ENDBRANCH  32  36
ENDBRANCH  28  32
ENDBRANCH  25  26
ENDBRANCH   8  25
BRANCH   1  39
ATOM     39  O1  IMA A   1       0.154  10.790  21.662  1.00  0.00    -0.347 OA
BRANCH  39  40
ATOM     40  C1  IMA A   1      -0.171  10.916  20.283  1.00  0.00     0.214 C 
BRANCH  40  41
ATOM     41  C2  IMA A   1       0.540  12.170  19.881  1.00  0.00    -0.034 A 
ATOM     42  C3  IMA A   1       1.188  12.195  18.641  1.00  0.00     0.009 A 
ATOM     43  C4  IMA A   1       1.808  13.388  18.214  1.00  0.00     0.001 A 
ATOM     44  C5  IMA A   1       1.770  14.527  19.046  1.00  0.00     0.000 A 
ATOM     45  C6  IMA A   1       1.144  14.494  20.304  1.00  0.00     0.001 A 
ATOM     46  C7  IMA A   1       0.530  13.308  20.727  1.00  0.00     0.009 A 
ENDBRANCH  40  41
ENDBRANCH  39  40
ENDBRANCH   1  39
TORSDOF 11
ENDMDL
MODEL 7
REMARK VINA RESULT:      -7.1      3.149      4.340
REMARK  11 active torsions:
REMARK  status: ('A' for Active; 'I' for Inactive)
REMARK    1  A    between atoms: C11_1  and  O1_34 
REMARK    2  A    between atoms: N18_8  and  C20_10 
REMARK    3  A    between atoms: C19_9  and  C21_11 
REMARK    4  A    between atoms: C20_10  and  C28_16 
REMARK       I    between atoms: C21_11  and  N22_12 
REMARK    5  A    between atoms: N22_12  and  C23_13 
REMARK    6  A    between atoms: C23_13  and  C24_14 
REMARK    7  A    between atoms: C31_17  and  C36_22 
REMARK    8  A    between atoms: C36_22  and  N37_23 
REMARK    9  A    between atoms: C40_26  and  N44_30 
REMARK   10  A    between atoms: O1_34  and  C1_35 
REMARK   11  A    between atoms: C1_35  and  C2_36 
ROOT
ATOM      1  C11 IMA A   1       0.955  10.059  22.237  1.00  0.00     0.070 A 
ATOM      2  C12 IMA A   1       1.901  10.560  23.160  1.00  0.00     0.039 A 
ATOM      3  C13 IMA A   1       2.927   9.727  23.604  1.00  0.00     0.033 A 
ATOM      4  C14 IMA A   1       3.005   8.406  23.098  1.00  0.00     0.045 A 
ATOM      5  C15 IMA A   1       2.073   7.910  22.135  1.00  0.00    -0.004 A 
ATOM      6  C16 IMA A   1       1.038   8.746  21.723  1.00  0.00     0.050 A 
ATOM      7  C17 IMA A   1       2.428   6.592  21.787  1.00  0.00     0.049 A 
ATOM      8  N18 IMA A   1       3.904   7.374  23.348  1.00  0.00    -0.337 N 
ATOM      9  C19 IMA A   1       3.571   6.305  22.570  1.00  0.00     0.104 A 
ENDROOT
BRANCH   9  10
ATOM     10  C21 IMA A   1       4.246   5.080  22.527  1.00  0.00     0.268 C 
ATOM     11  N22 IMA A   1       4.898   4.779  21.414  1.00  0.00    -0.351 N 
ATOM     12  H7  IMA A   1       4.859   5.337  20.585  1.00  0.00     0.163 HD
ATOM     13  O27 IMA A   1       4.250   4.327  23.496  1.00  0.00    -0.266 OA
BRANCH  11  14
ATOM     14  C23 IMA A   1       5.674   3.562  21.521  1.00  0.00     0.161 C 
BRANCH  14  15
ATOM     15  C24 IMA A   1       6.214   2.988  20.222  1.00  0.00    -0.040 A 
ATOM     16  C42 IMA A   1       7.529   3.320  19.854  1.00  0.00     0.011 A 
ATOM     17  C41 IMA A   1       8.118   2.695  18.735  1.00  0.00     0.038 A 
ATOM     18  C40 IMA A   1       7.394   1.762  17.966  1.00  0.00     0.135 A 
ATOM     19  C39 IMA A   1       6.054   1.491  18.324  1.00  0.00     0.038 A 
ATOM     20  C43 IMA A   1       5.460   2.103  19.445  1.00  0.00     0.011 A 
BRANCH  18  21
ATOM     21  N44 IMA A   1       8.064   1.117  16.855  1.00  0.00    -0.049 N 
ATOM     22  C45 IMA A   1       8.612   2.175  16.004  1.00  0.00     0.278 C 
ATOM     23  C49 IMA A   1       7.130   0.291  16.068  1.00  0.00     0.278 C 
ATOM     24  C53 IMA A   1       9.186   0.193  17.094  1.00  0.00     0.278 C 
ENDBRANCH  18  21
ENDBRANCH  14  15
ENDBRANCH  11  14
ENDBRANCH   9  10
BRANCH   8  25
ATOM     25  C20 IMA A   1       4.928   7.391  24.403  1.00  0.00     0.168 C 
BRANCH  25  26
ATOM     26  C28 IMA A   1       6.235   7.992  23.991  1.00  0.00    -0.039 A 
ATOM     27  C32 IMA A   1       6.245   8.526  22.703  1.00  0.00     0.024 A 
ATOM     28  C31 IMA A   1       7.395   9.218  22.251  1.00  0.00     0.007 A 
ATOM     29  C35 IMA A   1       8.535   9.323  23.101  1.00  0.00     0.015 A 
ATOM     30  C34 IMA A   1       8.535   8.745  24.383  1.00  0.00     0.002 A 
ATOM     31  C33 IMA A   1       7.373   8.080  24.830  1.00  0.00     0.009 A 
BRANCH  28  32
ATOM     32  C36 IMA A   1       7.322   9.793  20.892  1.00  0.00     0.102 C 
ATOM     33  N38 IMA A   1       8.362  10.450  20.362  1.00  0.00    -0.385 N 
ATOM     34  H16 IMA A   1       9.232  10.558  20.902  1.00  0.00     0.157 HD
ATOM     35  H17 IMA A   1       8.291  10.846  19.414  1.00  0.00     0.157 HD
BRANCH  32  36
ATOM     36  N37 IMA A   1       6.148   9.608  20.248  1.00  0.00    -0.385 N 
ATOM     37  H14 IMA A   1       5.671  10.408  19.807  1.00  0.00     0.157 HD
ATOM     38  H15 IMA A   1       5.730   8.668  20.198  1.00  0.00     0.157 HD
ENDBRANCH  32  36
ENDBRANCH  28  32
ENDBRANCH  25  26
ENDBRANCH   8  25
BRANCH   1  39
ATOM     39  O1  IMA A   1      -0.069  10.912  21.872  1.00  0.00    -0.347 OA
BRANCH  39  40
ATOM     40  C1  IMA A   1      -0.442  11.010  20.504  1.00  0.00     0.214 C 
BRANCH  40  41
ATOM     41  C2  IMA A   1       0.350  12.186  20.021  1.00  0.00    -0.034 A 
ATOM     42  C3  IMA A   1       0.976  12.095  18.773  1.00  0.00     0.009 A 
ATOM     43  C4  IMA A   1       1.672  13.214  18.271  1.00  0.00     0.001 A 
ATOM     44  C5  IMA A   1       1.732  14.397  19.038  1.00  0.00     0.000 A 
ATOM     45  C6  IMA A   1       1.128  14.479  20.304  1.00  0.00     0.001 A 
ATOM     46  C7  IMA A   1       0.438  13.366  20.802  1.00  0.00     0.009 A 
ENDBRANCH  40  41
ENDBRANCH  39  40
ENDBRANCH   1  39
TORSDOF 11
ENDMDL
MODEL 8
REMARK VINA RESULT:      -6.8      3.878      5.657
REMARK  11 active torsions:
REMARK  status: ('A' for Active; 'I' for Inactive)
REMARK    1  A    between atoms: C11_1  and  O1_34 
REMARK    2  A    between atoms: N18_8  and  C20_10 
REMARK    3  A    between atoms: C19_9  and  C21_11 
REMARK    4  A    between atoms: C20_10  and  C28_16 
REMARK       I    between atoms: C21_11  and  N22_12 
REMARK    5  A    between atoms: N22_12  and  C23_13 
REMARK    6  A    between atoms: C23_13  and  C24_14 
REMARK    7  A    between atoms: C31_17  and  C36_22 
REMARK    8  A    between atoms: C36_22  and  N37_23 
REMARK    9  A    between atoms: C40_26  and  N44_30 
REMARK   10  A    between atoms: O1_34  and  C1_35 
REMARK   11  A    between atoms: C1_35  and  C2_36 
ROOT
ATOM      1  C11 IMA A   1       2.158   8.533  24.560  1.00  0.00     0.070 A 
ATOM      2  C12 IMA A   1       3.118   7.621  25.056  1.00  0.00     0.039 A 
ATOM      3  C13 IMA A   1       3.901   6.900  24.156  1.00  0.00     0.033 A 
ATOM      4  C14 IMA A   1       3.727   7.119  22.768  1.00  0.00     0.045 A 
ATOM      5  C15 IMA A   1       2.786   8.069  22.264  1.00  0.00    -0.004 A 
ATOM      6  C16 IMA A   1       1.991   8.761  23.177  1.00  0.00     0.050 A 
ATOM      7  C17 IMA A   1       2.870   8.101  20.859  1.00  0.00     0.049 A 
ATOM      8  N18 IMA A   1       4.358   6.562  21.660  1.00  0.00    -0.337 N 
ATOM      9  C19 IMA A   1       3.860   7.145  20.532  1.00  0.00     0.104 A 
ENDROOT
BRANCH   9  10
ATOM     10  C21 IMA A   1       4.253   6.861  19.220  1.00  0.00     0.268 C 
ATOM     11  N22 IMA A   1       5.392   7.386  18.795  1.00  0.00    -0.351 N 
ATOM     12  H7  IMA A   1       5.932   8.038  19.329  1.00  0.00     0.163 HD
ATOM     13  O27 IMA A   1       3.576   6.133  18.501  1.00  0.00    -0.266 OA
BRANCH  11  14
ATOM     14  C23 IMA A   1       5.777   6.922  17.479  1.00  0.00     0.161 C 
BRANCH  14  15
ATOM     15  C24 IMA A   1       6.596   5.644  17.426  1.00  0.00    -0.040 A 
ATOM     16  C42 IMA A   1       7.433   5.354  18.518  1.00  0.00     0.011 A 
ATOM     17  C41 IMA A   1       8.098   4.112  18.575  1.00  0.00     0.038 A 
ATOM     18  C40 IMA A   1       7.954   3.168  17.538  1.00  0.00     0.135 A 
ATOM     19  C39 IMA A   1       7.153   3.508  16.425  1.00  0.00     0.038 A 
ATOM     20  C43 IMA A   1       6.477   4.743  16.363  1.00  0.00     0.011 A 
BRANCH  18  21
ATOM     21  N44 IMA A   1       8.624   1.890  17.671  1.00  0.00    -0.049 N 
ATOM     22  C45 IMA A   1      10.063   2.157  17.724  1.00  0.00     0.278 C 
ATOM     23  C49 IMA A   1       8.332   1.006  16.529  1.00  0.00     0.278 C 
ATOM     24  C53 IMA A   1       8.350   1.020  18.828  1.00  0.00     0.278 C 
ENDBRANCH  18  21
ENDBRANCH  14  15
ENDBRANCH  11  14
ENDBRANCH   9  10
BRANCH   8  25
ATOM     25  C20 IMA A   1       5.278   5.416  21.708  1.00  0.00     0.168 C 
BRANCH  25  26
ATOM     26  C28 IMA A   1       4.606   4.081  21.769  1.00  0.00    -0.039 A 
ATOM     27  C32 IMA A   1       4.420   3.470  20.528  1.00  0.00     0.024 A 
ATOM     28  C31 IMA A   1       3.894   2.156  20.478  1.00  0.00     0.007 A 
ATOM     29  C35 IMA A   1       3.526   1.496  21.687  1.00  0.00     0.015 A 
ATOM     30  C34 IMA A   1       3.677   2.133  22.932  1.00  0.00     0.002 A 
ATOM     31  C33 IMA A   1       4.225   3.433  22.970  1.00  0.00     0.009 A 
BRANCH  28  32
ATOM     32  C36 IMA A   1       3.760   1.555  19.135  1.00  0.00     0.102 C 
ATOM     33  N38 IMA A   1       4.764   1.604  18.251  1.00  0.00    -0.385 N 
ATOM     34  H16 IMA A   1       5.650   2.064  18.504  1.00  0.00     0.157 HD
ATOM     35  H17 IMA A   1       4.651   1.183  17.319  1.00  0.00     0.157 HD
BRANCH  32  36
ATOM     36  N37 IMA A   1       2.567   0.970  18.880  1.00  0.00    -0.385 N 
ATOM     37  H14 IMA A   1       2.069   0.469  19.629  1.00  0.00     0.157 HD
ATOM     38  H15 IMA A   1       2.157   1.026  17.937  1.00  0.00     0.157 HD
ENDBRANCH  32  36
ENDBRANCH  28  32
ENDBRANCH  25  26
ENDBRANCH   8  25
BRANCH   1  39
ATOM     39  O1  IMA A   1       1.375   9.181  25.496  1.00  0.00    -0.347 OA
BRANCH  39  40
ATOM     40  C1  IMA A   1       0.075   9.626  25.132  1.00  0.00     0.214 C 
BRANCH  40  41
ATOM     41  C2  IMA A   1      -0.682   8.347  24.954  1.00  0.00    -0.034 A 
ATOM     42  C3  IMA A   1      -0.619   7.392  25.975  1.00  0.00     0.009 A 
ATOM     43  C4  IMA A   1      -1.377   6.208  25.856  1.00  0.00     0.001 A 
ATOM     44  C5  IMA A   1      -2.176   6.006  24.711  1.00  0.00     0.000 A 
ATOM     45  C6  IMA A   1      -2.218   6.952  23.672  1.00  0.00     0.001 A 
ATOM     46  C7  IMA A   1      -1.462   8.127  23.791  1.00  0.00     0.009 A 
ENDBRANCH  40  41
ENDBRANCH  39  40
ENDBRANCH   1  39
TORSDOF 11
ENDMDL
MODEL 9
REMARK VINA RESULT:      -6.7      3.995      5.367
REMARK  11 active torsions:
REMARK  status: ('A' for Active; 'I' for Inactive)
REMARK    1  A    between atoms: C11_1  and  O1_34 
REMARK    2  A    between atoms: N18_8  and  C20_10 
REMARK    3  A    between atoms: C19_9  and  C21_11 
REMARK    4  A    between atoms: C20_10  and  C28_16 
REMARK       I    between atoms: C21_11  and  N22_12 
REMARK    5  A    between atoms: N22_12  and  C23_13 
REMARK    6  A    between atoms: C23_13  and  C24_14 
REMARK    7  A    between atoms: C31_17  and  C36_22 
REMARK    8  A    between atoms: C36_22  and  N37_23 
REMARK    9  A    between atoms: C40_26  and  N44_30 
REMARK   10  A    between atoms: O1_34  and  C1_35 
REMARK   11  A    between atoms: C1_35  and  C2_36 
ROOT
ATOM      1  C11 IMA A   1       0.764   7.845  24.080  1.00  0.00     0.070 A 
ATOM      2  C12 IMA A   1       1.784   7.075  24.685  1.00  0.00     0.039 A 
ATOM      3  C13 IMA A   1       2.814   6.569  23.896  1.00  0.00     0.033 A 
ATOM      4  C14 IMA A   1       2.822   6.859  22.509  1.00  0.00     0.045 A 
ATOM      5  C15 IMA A   1       1.814   7.669  21.901  1.00  0.00    -0.004 A 
ATOM      6  C16 IMA A   1       0.776   8.144  22.700  1.00  0.00     0.050 A 
ATOM      7  C17 IMA A   1       2.108   7.822  20.533  1.00  0.00     0.049 A 
ATOM      8  N18 IMA A   1       3.708   6.503  21.497  1.00  0.00    -0.337 N 
ATOM      9  C19 IMA A   1       3.294   7.076  20.331  1.00  0.00     0.104 A 
ENDROOT
BRANCH   9  10
ATOM     10  C21 IMA A   1       3.931   6.964  19.091  1.00  0.00     0.268 C 
ATOM     11  N22 IMA A   1       5.166   7.430  18.992  1.00  0.00    -0.351 N 
ATOM     12  H7  IMA A   1       5.626   7.931  19.726  1.00  0.00     0.163 HD
ATOM     13  O27 IMA A   1       3.369   6.431  18.139  1.00  0.00    -0.266 OA
BRANCH  11  14
ATOM     14  C23 IMA A   1       5.783   7.142  17.716  1.00  0.00     0.161 C 
BRANCH  14  15
ATOM     15  C24 IMA A   1       6.566   5.843  17.620  1.00  0.00    -0.040 A 
ATOM     16  C42 IMA A   1       7.425   5.515  18.684  1.00  0.00     0.011 A 
ATOM     17  C41 IMA A   1       8.058   4.255  18.704  1.00  0.00     0.038 A 
ATOM     18  C40 IMA A   1       7.859   3.331  17.658  1.00  0.00     0.135 A 
ATOM     19  C39 IMA A   1       7.036   3.709  16.573  1.00  0.00     0.038 A 
ATOM     20  C43 IMA A   1       6.393   4.962  16.549  1.00  0.00     0.011 A 
BRANCH  18  21
ATOM     21  N44 IMA A   1       8.498   2.034  17.754  1.00  0.00    -0.049 N 
ATOM     22  C45 IMA A   1       8.107   1.267  16.570  1.00  0.00     0.278 C 
ATOM     23  C49 IMA A   1       8.074   1.312  18.967  1.00  0.00     0.278 C 
ATOM     24  C53 IMA A   1       9.967   1.928  17.815  1.00  0.00     0.278 C 
ENDBRANCH  18  21
ENDBRANCH  14  15
ENDBRANCH  11  14
ENDBRANCH   9  10
BRANCH   8  25
ATOM     25  C20 IMA A   1       4.801   5.531  21.644  1.00  0.00     0.168 C 
BRANCH  25  26
ATOM     26  C28 IMA A   1       4.358   4.105  21.724  1.00  0.00    -0.039 A 
ATOM     27  C32 IMA A   1       4.079   3.516  20.490  1.00  0.00     0.024 A 
ATOM     28  C31 IMA A   1       3.758   2.137  20.440  1.00  0.00     0.007 A 
ATOM     29  C35 IMA A   1       3.686   1.384  21.649  1.00  0.00     0.015 A 
ATOM     30  C34 IMA A   1       3.927   1.993  22.893  1.00  0.00     0.002 A 
ATOM     31  C33 IMA A   1       4.270   3.362  22.927  1.00  0.00     0.009 A 
BRANCH  28  32
ATOM     32  C36 IMA A   1       3.513   1.570  19.098  1.00  0.00     0.102 C 
ATOM     33  N38 IMA A   1       2.352   0.973  18.801  1.00  0.00    -0.385 N 
ATOM     34  H16 IMA A   1       1.611   0.906  19.512  1.00  0.00     0.157 HD
ATOM     35  H17 IMA A   1       2.201   0.580  17.861  1.00  0.00     0.157 HD
BRANCH  32  36
ATOM     36  N37 IMA A   1       4.534   1.698  18.221  1.00  0.00    -0.385 N 
ATOM     37  H14 IMA A   1       5.348   1.069  18.283  1.00  0.00     0.157 HD
ATOM     38  H15 IMA A   1       4.499   2.423  17.490  1.00  0.00     0.157 HD
ENDBRANCH  32  36
ENDBRANCH  28  32
ENDBRANCH  25  26
ENDBRANCH   8  25
BRANCH   1  39
ATOM     39  O1  IMA A   1      -0.259   8.277  24.902  1.00  0.00    -0.347 OA
BRANCH  39  40
ATOM     40  C1  IMA A   1      -1.396   8.910  24.329  1.00  0.00     0.214 C 
BRANCH  40  41
ATOM     41  C2  IMA A   1      -1.350  10.285  24.920  1.00  0.00    -0.034 A 
ATOM     42  C3  IMA A   1      -2.387  10.674  25.775  1.00  0.00     0.009 A 
ATOM     43  C4  IMA A   1      -2.329  11.940  26.393  1.00  0.00     0.001 A 
ATOM     44  C5  IMA A   1      -1.235  12.792  26.131  1.00  0.00     0.000 A 
ATOM     45  C6  IMA A   1      -0.208  12.414  25.249  1.00  0.00     0.001 A 
ATOM     46  C7  IMA A   1      -0.268  11.156  24.635  1.00  0.00     0.009 A 
ENDBRANCH  40  41
ENDBRANCH  39  40
ENDBRANCH   1  39
TORSDOF 11
ENDMDL
