MODEL 1
REMARK VINA RESULT:      -8.2      0.432      0.432
REMARK  6 active torsions:
REMARK  status: ('A' for Active; 'I' for Inactive)
REMARK    1  A    between atoms: S5'_2  and  C5'_3 
REMARK    2  A    between atoms: C5'_3  and  C4'_4 
REMARK    3  A    between atoms: C2'_6  and  O2'_7 
REMARK    4  A    between atoms: C3'_8  and  O3'_9 
REMARK    5  A    between atoms: C1'_10  and  N9_11 
REMARK    6  A    between atoms: C6_15  and  N6_16 
ROOT
ATOM      1  N9  MTH A   1      56.854  73.738  19.236  1.00  0.00    -0.312 N 
ATOM      2  C8  MTH A   1      56.857  73.335  17.903  1.00  0.00     0.096 A 
ATOM      3  C7  MTH A   1      55.682  73.447  17.306  1.00  0.00     0.036 A 
ATOM      4  C5  MTH A   1      54.851  73.950  18.292  1.00  0.00     0.053 A 
ATOM      5  C6  MTH A   1      53.465  74.298  18.336  1.00  0.00     0.113 A 
ATOM      6  N1  MTH A   1      52.969  74.783  19.534  1.00  0.00    -0.338 N 
ATOM      7  H1  MTH A   1      51.985  75.041  19.607  1.00  0.00     0.168 HD
ATOM      8  C2  MTH A   1      53.774  74.915  20.600  1.00  0.00     0.183 A 
ATOM      9  N3  MTH A   1      55.089  74.617  20.667  1.00  0.00    -0.338 N 
ATOM     10  H3  MTH A   1      55.662  74.736  21.504  1.00  0.00     0.168 HD
ATOM     11  C4  MTH A   1      55.557  74.141  19.479  1.00  0.00     0.124 A 
ENDROOT
BRANCH   1  12
ATOM     12  C1' MTH A   1      58.128  73.690  20.190  1.00  0.00     0.261 C 
ATOM     13  O4' MTH A   1      58.471  72.273  20.361  1.00  0.00    -0.355 OA
ATOM     14  C4' MTH A   1      58.053  71.765  21.667  1.00  0.00     0.165 C 
ATOM     15  C3' MTH A   1      58.311  72.905  22.626  1.00  0.00     0.180 C 
ATOM     16  C2' MTH A   1      57.948  74.152  21.687  1.00  0.00     0.198 C 
BRANCH  14  17
ATOM     17  C5' MTH A   1      56.603  71.286  21.603  1.00  0.00     0.108 C 
BRANCH  17  18
ATOM     18  S5' MTH A   1      56.112  70.293  23.050  1.00  0.00    -0.171 SA
ATOM     19  CS  MTH A   1      55.751  68.694  22.223  1.00  0.00     0.089 C 
ENDBRANCH  17  18
ENDBRANCH  14  17
BRANCH  15  20
ATOM     20  O3' MTH A   1      59.750  72.885  22.973  1.00  0.00    -0.390 OA
ATOM     21  H10 MTH A   1      59.911  72.205  23.616  1.00  0.00     0.210 HD
ENDBRANCH  15  20
BRANCH  16  22
ATOM     22  O2' MTH A   1      58.739  75.348  21.986  1.00  0.00    -0.388 OA
ATOM     23  H8  MTH A   1      59.462  75.410  21.373  1.00  0.00     0.210 HD
ENDBRANCH  16  22
ENDBRANCH   1  12
BRANCH   5  24
ATOM     24  N6  MTH A   1      52.655  74.168  17.278  1.00  0.00    -0.385 N 
ATOM     25  H14 MTH A   1      51.640  74.306  17.387  1.00  0.00     0.157 HD
ATOM     26  H15 MTH A   1      53.047  73.930  16.356  1.00  0.00     0.157 HD
ENDBRANCH   5  24
TORSDOF 6
ENDMDL
