REMARK  5 active torsions:
REMARK  status: ('A' for Active; 'I' for Inactive)
REMARK    1  A    between atoms: C9_13  and  C1'_14 
REMARK    2  A    between atoms: C2'_15  and  O2'_16 
REMARK    3  A    between atoms: C3'_17  and  O3'_18 
REMARK    4  A    between atoms: C4'_19  and  C5'_21 
REMARK    5  A    between atoms: C5'_21  and  O5'_22 
ROOT
ATOM      1  N1  FMC A   1      52.374  40.634  19.822  1.00  0.00    -0.337 N 
ATOM      2  H1  FMC A   1      51.392  40.908  19.832  1.00  0.00     0.168 HD
ATOM      3  C2  FMC A   1      53.072  40.673  20.986  1.00  0.00     0.182 A 
ATOM      4  N3  FMC A   1      54.379  40.334  21.123  1.00  0.00    -0.349 N 
ATOM      5  H3  FMC A   1      54.871  40.373  22.016  1.00  0.00     0.167 HD
ATOM      6  C4  FMC A   1      55.013  39.913  19.895  1.00  0.00     0.092 A 
ATOM      7  C5  FMC A   1      54.340  39.857  18.658  1.00  0.00     0.120 A 
ATOM      8  C6  FMC A   1      52.936  40.241  18.632  1.00  0.00     0.130 A 
ATOM      9  N6  FMC A   1      52.201  40.219  17.517  1.00  0.00    -0.383 N 
ATOM     10  N7  FMC A   1      55.230  39.420  17.715  1.00  0.00    -0.295 N 
ATOM     11  N8  FMC A   1      56.473  39.184  18.313  1.00  0.00    -0.299 N 
ATOM     12  H8  FMC A   1      57.313  38.854  17.838  1.00  0.00     0.187 HD
ATOM     13  C9  FMC A   1      56.366  39.470  19.630  1.00  0.00     0.086 A 
ATOM     14  H2  FMC A   1      52.625  39.924  16.626  1.00  0.00     0.157 HD
ATOM     15  H3  FMC A   1      51.210  40.497  17.548  1.00  0.00     0.157 HD
ATOM     16  H4  FMC A   1      55.017  39.285  16.716  1.00  0.00     0.187 HD
ENDROOT
BRANCH  13  17
ATOM     17  C1' FMC A   1      57.547  39.316  20.657  1.00  0.00     0.207 C 
ATOM     18  C2' FMC A   1      57.480  39.880  22.108  1.00  0.00     0.184 C 
ATOM     19  C3' FMC A   1      57.684  38.688  23.024  1.00  0.00     0.180 C 
ATOM     20  C4' FMC A   1      57.434  37.385  22.204  1.00  0.00     0.177 C 
ATOM     21  O4' FMC A   1      57.780  37.887  20.839  1.00  0.00    -0.367 OA
BRANCH  18  22
ATOM     22  O2' FMC A   1      58.359  40.912  22.435  1.00  0.00    -0.390 OA
ATOM     23  H7  FMC A   1      59.253  40.613  22.321  1.00  0.00     0.210 HD
ENDBRANCH  18  22
BRANCH  19  24
ATOM     24  O3' FMC A   1      59.047  38.815  23.510  1.00  0.00    -0.390 OA
ATOM     25  H9  FMC A   1      59.140  39.637  23.978  1.00  0.00     0.210 HD
ENDBRANCH  19  24
BRANCH  20  26
ATOM     26  C5' FMC A   1      55.950  36.844  22.200  1.00  0.00     0.198 C 
BRANCH  26  27
ATOM     27  O5' FMC A   1      55.446  36.346  23.437  1.00  0.00    -0.398 OA
ATOM     28  H13 FMC A   1      54.551  36.050  23.317  1.00  0.00     0.209 HD
ENDBRANCH  26  27
ENDBRANCH  20  26
ENDBRANCH  13  17
TORSDOF 5
