MODEL 1
REMARK VINA RESULT:      -9.4      0.427      0.427
REMARK  5 active torsions:
REMARK  status: ('A' for Active; 'I' for Inactive)
REMARK    1  A    between atoms: C9_13  and  C1'_14 
REMARK    2  A    between atoms: C2'_15  and  O2'_16 
REMARK    3  A    between atoms: C3'_17  and  O3'_18 
REMARK    4  A    between atoms: C4'_19  and  C5'_21 
REMARK    5  A    between atoms: C5'_21  and  O5'_22 
ROOT
ATOM      1  N1  FMC A   1      52.423  40.930  19.838  1.00  0.00    -0.337 N 
ATOM      2  H1  FMC A   1      51.468  41.289  19.860  1.00  0.00     0.168 HD
ATOM      3  C2  FMC A   1      53.156  40.962  20.981  1.00  0.00     0.182 A 
ATOM      4  N3  FMC A   1      54.432  40.517  21.101  1.00  0.00    -0.349 N 
ATOM      5  H3  FMC A   1      54.952  40.554  21.978  1.00  0.00     0.167 HD
ATOM      6  C4  FMC A   1      54.992  39.987  19.879  1.00  0.00     0.092 A 
ATOM      7  C5  FMC A   1      54.280  39.933  18.663  1.00  0.00     0.120 A 
ATOM      8  C6  FMC A   1      52.914  40.436  18.655  1.00  0.00     0.130 A 
ATOM      9  N6  FMC A   1      52.147  40.427  17.561  1.00  0.00    -0.383 N 
ATOM     10  N7  FMC A   1      55.101  39.378  17.720  1.00  0.00    -0.295 N 
ATOM     11  N8  FMC A   1      56.336  39.063  18.297  1.00  0.00    -0.299 N 
ATOM     12  H8  FMC A   1      57.131  38.639  17.817  1.00  0.00     0.187 HD
ATOM     13  C9  FMC A   1      56.293  39.417  19.601  1.00  0.00     0.086 A 
ATOM     14  H2  FMC A   1      52.517  40.055  16.675  1.00  0.00     0.157 HD
ATOM     15  H3  FMC A   1      51.184  40.791  17.604  1.00  0.00     0.157 HD
ATOM     16  H4  FMC A   1      54.848  39.216  16.734  1.00  0.00     0.187 HD
ENDROOT
BRANCH  13  17
ATOM     17  C1' FMC A   1      57.487  39.208  20.603  1.00  0.00     0.207 C 
ATOM     18  C2' FMC A   1      57.453  39.726  22.072  1.00  0.00     0.184 C 
ATOM     19  C3' FMC A   1      57.648  38.502  22.947  1.00  0.00     0.180 C 
ATOM     20  C4' FMC A   1      57.361  37.231  22.090  1.00  0.00     0.177 C 
ATOM     21  O4' FMC A   1      57.695  37.770  20.736  1.00  0.00    -0.367 OA
BRANCH  18  22
ATOM     22  O2' FMC A   1      58.356  40.731  22.418  1.00  0.00    -0.390 OA
ATOM     23  H7  FMC A   1      59.183  40.339  22.671  1.00  0.00     0.210 HD
ENDBRANCH  18  22
BRANCH  19  24
ATOM     24  O3' FMC A   1      59.020  38.588  23.415  1.00  0.00    -0.390 OA
ATOM     25  H9  FMC A   1      59.148  37.978  24.132  1.00  0.00     0.210 HD
ENDBRANCH  19  24
BRANCH  20  26
ATOM     26  C5' FMC A   1      55.867  36.718  22.092  1.00  0.00     0.198 C 
BRANCH  26  27
ATOM     27  O5' FMC A   1      55.674  35.307  22.151  1.00  0.00    -0.398 OA
ATOM     28  H13 FMC A   1      55.664  34.952  21.269  1.00  0.00     0.209 HD
ENDBRANCH  26  27
ENDBRANCH  20  26
ENDBRANCH  13  17
TORSDOF 5
ENDMDL
