REMARK  8 active torsions:
REMARK  status: ('A' for Active; 'I' for Inactive)
REMARK    1  A    between atoms: PB_1  and  O3A_8 
REMARK    2  A    between atoms: PA_5  and  O3A_8 
REMARK    3  A    between atoms: PA_5  and  O5_9 
REMARK    4  A    between atoms: O5_9  and  C5_10 
REMARK    5  A    between atoms: C5_10  and  C4_11 
REMARK    6  A    between atoms: C3_13  and  O3_14 
REMARK    7  A    between atoms: C2_15  and  O2_16 
REMARK    8  A    between atoms: C1_17  and  N9_18 
ROOT
ATOM      1  C4  ADP A   1      36.712   7.550  16.540  1.00  0.00     0.180 C 
ATOM      2  O4  ADP A   1      35.976   7.003  17.631  1.00  0.00    -0.353 OA
ATOM      3  C3  ADP A   1      37.999   8.095  17.161  1.00  0.00     0.182 C 
ATOM      4  C2  ADP A   1      38.098   7.402  18.504  1.00  0.00     0.198 C 
ATOM      5  C1  ADP A   1      36.621   7.353  18.841  1.00  0.00     0.262 C 
ENDROOT
BRANCH   5   6
ATOM      6  N9  ADP A   1      36.275   6.370  19.889  1.00  0.00    -0.297 N 
ATOM      7  C8  ADP A   1      35.419   6.670  20.900  1.00  0.00     0.188 A 
ATOM      8  N7  ADP A   1      35.213   5.631  21.747  1.00  0.00    -0.346 N 
ATOM      9  C5  ADP A   1      35.997   4.691  21.237  1.00  0.00     0.122 A 
ATOM     10  H7  ADP A   1      34.609   5.584  22.567  1.00  0.00     0.167 HD
ATOM     11  C6  ADP A   1      36.245   3.338  21.656  1.00  0.00     0.131 A 
ATOM     12  C4  ADP A   1      36.690   5.117  20.030  1.00  0.00     0.142 A 
ATOM     13  N6  ADP A   1      35.656   2.870  22.777  1.00  0.00    -0.383 N 
ATOM     14  N1  ADP A   1      37.091   2.610  20.922  1.00  0.00    -0.337 N 
ATOM     15  H10 ADP A   1      35.829   1.902  23.084  1.00  0.00     0.157 HD
ATOM     16  H11 ADP A   1      35.034   3.481  23.326  1.00  0.00     0.157 HD
ATOM     17  C2  ADP A   1      37.680   3.103  19.820  1.00  0.00     0.183 A 
ATOM     18  H1  ADP A   1      37.296   1.652  21.207  1.00  0.00     0.168 HD
ATOM     19  N3  ADP A   1      37.512   4.340  19.341  1.00  0.00    -0.336 N 
ATOM     20  H3  ADP A   1      37.987   4.665  18.499  1.00  0.00     0.168 HD
ENDBRANCH   5   6
BRANCH   4  21
ATOM     21  O2  ADP A   1      38.877   8.066  19.491  1.00  0.00    -0.388 OA
ATOM     22  H7  ADP A   1      38.505   8.923  19.662  1.00  0.00     0.210 HD
ENDBRANCH   4  21
BRANCH   1  23
ATOM     23  C5  ADP A   1      36.840   6.450  15.499  1.00  0.00     0.216 C 
BRANCH  23  24
ATOM     24  O5  ADP A   1      37.293   7.074  14.297  1.00  0.00    -0.287 OA
BRANCH  24  25
ATOM     25  PA  ADP A   1      37.900   6.221  13.092  1.00  0.00     0.418 P 
ATOM     26  O1A ADP A   1      38.031   7.192  11.940  1.00  0.00    -0.624 OA
ATOM     27  O2A ADP A   1      39.152   5.499  13.504  1.00  0.00    -0.624 OA
BRANCH  25  28
ATOM     28  O3A ADP A   1      36.734   5.187  12.670  1.00  0.00    -0.173 OA
BRANCH  28  29
ATOM     29  PB  ADP A   1      36.396   3.677  13.087  1.00  0.00     0.431 P 
ATOM     30  O1B ADP A   1      34.892   3.693  13.238  1.00  0.00    -0.616 OA
ATOM     31  O2B ADP A   1      36.863   2.829  11.954  1.00  0.00    -0.616 OA
ATOM     32  O3B ADP A   1      37.096   3.421  14.401  1.00  0.00    -0.616 OA
ENDBRANCH  28  29
ENDBRANCH  25  28
ENDBRANCH  24  25
ENDBRANCH  23  24
ENDBRANCH   1  23
BRANCH   3  33
ATOM     33  O3  ADP A   1      37.850   9.495  17.349  1.00  0.00    -0.390 OA
ATOM     34  H5  ADP A   1      38.643   9.848  17.735  1.00  0.00     0.210 HD
ENDBRANCH   3  33
TORSDOF 8
