MODEL 1
REMARK VINA RESULT:      -6.8      1.260      1.465
REMARK  8 active torsions:
REMARK  status: ('A' for Active; 'I' for Inactive)
REMARK    1  A    between atoms: PB_1  and  O3A_8 
REMARK    2  A    between atoms: PA_5  and  O3A_8 
REMARK    3  A    between atoms: PA_5  and  O5_9 
REMARK    4  A    between atoms: O5_9  and  C5_10 
REMARK    5  A    between atoms: C5_10  and  C4_11 
REMARK    6  A    between atoms: C3_13  and  O3_14 
REMARK    7  A    between atoms: C2_15  and  O2_16 
REMARK    8  A    between atoms: C1_17  and  N9_18 
ROOT
ATOM      1  C4  ADP A   1      37.063   7.955  16.411  1.00  0.00     0.180 C 
ATOM      2  O4  ADP A   1      36.401   7.009  17.247  1.00  0.00    -0.353 OA
ATOM      3  C3  ADP A   1      37.464   9.099  17.344  1.00  0.00     0.182 C 
ATOM      4  C2  ADP A   1      37.398   8.500  18.733  1.00  0.00     0.198 C 
ATOM      5  C1  ADP A   1      36.209   7.583  18.527  1.00  0.00     0.262 C 
ENDROOT
BRANCH   5   6
ATOM      6  N9  ADP A   1      36.093   6.511  19.538  1.00  0.00    -0.297 N 
ATOM      7  C8  ADP A   1      35.223   6.597  20.578  1.00  0.00     0.188 A 
ATOM      8  N7  ADP A   1      35.250   5.506  21.383  1.00  0.00    -0.346 N 
ATOM      9  C5  ADP A   1      36.188   4.760  20.817  1.00  0.00     0.122 A 
ATOM     10  H7  ADP A   1      34.690   5.309  22.212  1.00  0.00     0.167 HD
ATOM     11  C6  ADP A   1      36.709   3.467  21.172  1.00  0.00     0.131 A 
ATOM     12  C4  ADP A   1      36.750   5.360  19.616  1.00  0.00     0.142 A 
ATOM     13  N6  ADP A   1      36.255   2.849  22.283  1.00  0.00    -0.383 N 
ATOM     14  N1  ADP A   1      37.660   2.949  20.390  1.00  0.00    -0.337 N 
ATOM     15  H10 ADP A   1      36.624   1.923  22.544  1.00  0.00     0.157 HD
ATOM     16  H11 ADP A   1      35.541   3.304  22.870  1.00  0.00     0.157 HD
ATOM     17  C2  ADP A   1      38.110   3.591  19.299  1.00  0.00     0.183 A 
ATOM     18  H1  ADP A   1      38.057   2.041  20.629  1.00  0.00     0.168 HD
ATOM     19  N3  ADP A   1      37.688   4.788  18.877  1.00  0.00    -0.336 N 
ATOM     20  H3  ADP A   1      38.066   5.233  18.041  1.00  0.00     0.168 HD
ENDBRANCH   5   6
BRANCH   4  21
ATOM     21  O2  ADP A   1      37.217   9.422  19.800  1.00  0.00    -0.388 OA
ATOM     22  H7  ADP A   1      36.297   9.454  20.036  1.00  0.00     0.210 HD
ENDBRANCH   4  21
BRANCH   1  23
ATOM     23  C5  ADP A   1      38.174   7.207  15.693  1.00  0.00     0.216 C 
BRANCH  23  24
ATOM     24  O5  ADP A   1      37.997   5.822  15.995  1.00  0.00    -0.287 OA
BRANCH  24  25
ATOM     25  PA  ADP A   1      38.354   4.685  14.933  1.00  0.00     0.418 P 
ATOM     26  O1A ADP A   1      39.215   5.365  13.892  1.00  0.00    -0.624 OA
ATOM     27  O2A ADP A   1      38.942   3.474  15.600  1.00  0.00    -0.624 OA
BRANCH  25  28
ATOM     28  O3A ADP A   1      36.961   4.335  14.196  1.00  0.00    -0.173 OA
BRANCH  28  29
ATOM     29  PB  ADP A   1      36.568   3.359  12.987  1.00  0.00     0.431 P 
ATOM     30  O1B ADP A   1      36.104   4.316  11.913  1.00  0.00    -0.616 OA
ATOM     31  O2B ADP A   1      37.820   2.635  12.627  1.00  0.00    -0.616 OA
ATOM     32  O3B ADP A   1      35.447   2.477  13.485  1.00  0.00    -0.616 OA
ENDBRANCH  28  29
ENDBRANCH  25  28
ENDBRANCH  24  25
ENDBRANCH  23  24
ENDBRANCH   1  23
BRANCH   3  33
ATOM     33  O3  ADP A   1      36.503  10.138  17.219  1.00  0.00    -0.390 OA
ATOM     34  H5  ADP A   1      36.930  10.927  16.907  1.00  0.00     0.210 HD
ENDBRANCH   3  33
TORSDOF 8
ENDMDL
MODEL 2
REMARK VINA RESULT:      -6.6      1.878      2.976
REMARK  8 active torsions:
REMARK  status: ('A' for Active; 'I' for Inactive)
REMARK    1  A    between atoms: PB_1  and  O3A_8 
REMARK    2  A    between atoms: PA_5  and  O3A_8 
REMARK    3  A    between atoms: PA_5  and  O5_9 
REMARK    4  A    between atoms: O5_9  and  C5_10 
REMARK    5  A    between atoms: C5_10  and  C4_11 
REMARK    6  A    between atoms: C3_13  and  O3_14 
REMARK    7  A    between atoms: C2_15  and  O2_16 
REMARK    8  A    between atoms: C1_17  and  N9_18 
ROOT
ATOM      1  C4  ADP A   1      37.127   6.917  18.630  1.00  0.00     0.180 C 
ATOM      2  O4  ADP A   1      36.817   5.543  18.847  1.00  0.00    -0.353 OA
ATOM      3  C3  ADP A   1      37.812   7.379  19.917  1.00  0.00     0.182 C 
ATOM      4  C2  ADP A   1      38.250   6.099  20.597  1.00  0.00     0.198 C 
ATOM      5  C1  ADP A   1      37.079   5.222  20.200  1.00  0.00     0.262 C 
ENDROOT
BRANCH   5   6
ATOM      6  N9  ADP A   1      37.344   3.773  20.323  1.00  0.00    -0.297 N 
ATOM      7  C8  ADP A   1      36.651   2.987  21.188  1.00  0.00     0.188 A 
ATOM      8  N7  ADP A   1      37.025   1.685  21.137  1.00  0.00    -0.346 N 
ATOM      9  C5  ADP A   1      37.993   1.703  20.232  1.00  0.00     0.122 A 
ATOM     10  H7  ADP A   1      36.655   0.892  21.662  1.00  0.00     0.167 HD
ATOM     11  C6  ADP A   1      38.815   0.647  19.706  1.00  0.00     0.131 A 
ATOM     12  C4  ADP A   1      38.224   3.025  19.668  1.00  0.00     0.142 A 
ATOM     13  N6  ADP A   1      38.677  -0.606  20.189  1.00  0.00    -0.383 N 
ATOM     14  N1  ADP A   1      39.715   0.971  18.774  1.00  0.00    -0.337 N 
ATOM     15  H10 ADP A   1      39.262  -1.369  19.817  1.00  0.00     0.157 HD
ATOM     16  H11 ADP A   1      37.988  -0.801  20.929  1.00  0.00     0.157 HD
ATOM     17  C2  ADP A   1      39.847   2.229  18.322  1.00  0.00     0.183 A 
ATOM     18  H1  ADP A   1      40.321   0.243  18.396  1.00  0.00     0.168 HD
ATOM     19  N3  ADP A   1      39.131   3.279  18.737  1.00  0.00    -0.336 N 
ATOM     20  H3  ADP A   1      39.273   4.216  18.360  1.00  0.00     0.168 HD
ENDBRANCH   5   6
BRANCH   4  21
ATOM     21  O2  ADP A   1      38.441   6.176  22.004  1.00  0.00    -0.388 OA
ATOM     22  H7  ADP A   1      38.090   6.998  22.325  1.00  0.00     0.210 HD
ENDBRANCH   4  21
BRANCH   1  23
ATOM     23  C5  ADP A   1      37.925   6.991  17.339  1.00  0.00     0.216 C 
BRANCH  23  24
ATOM     24  O5  ADP A   1      37.535   5.865  16.551  1.00  0.00    -0.287 OA
BRANCH  24  25
ATOM     25  PA  ADP A   1      37.435   5.954  14.961  1.00  0.00     0.418 P 
ATOM     26  O1A ADP A   1      36.691   7.240  14.677  1.00  0.00    -0.624 OA
ATOM     27  O2A ADP A   1      38.784   5.806  14.314  1.00  0.00    -0.624 OA
BRANCH  25  28
ATOM     28  O3A ADP A   1      36.438   4.760  14.527  1.00  0.00    -0.173 OA
BRANCH  28  29
ATOM     29  PB  ADP A   1      36.508   3.619  13.404  1.00  0.00     0.431 P 
ATOM     30  O1B ADP A   1      37.700   2.793  13.829  1.00  0.00    -0.616 OA
ATOM     31  O2B ADP A   1      35.218   2.879  13.497  1.00  0.00    -0.616 OA
ATOM     32  O3B ADP A   1      36.744   4.320  12.086  1.00  0.00    -0.616 OA
ENDBRANCH  28  29
ENDBRANCH  25  28
ENDBRANCH  24  25
ENDBRANCH  23  24
ENDBRANCH   1  23
BRANCH   3  33
ATOM     33  O3  ADP A   1      36.852   8.050  20.721  1.00  0.00    -0.390 OA
ATOM     34  H5  ADP A   1      37.300   8.601  21.352  1.00  0.00     0.210 HD
ENDBRANCH   3  33
TORSDOF 8
ENDMDL
MODEL 3
REMARK VINA RESULT:      -6.5      1.520      2.357
REMARK  8 active torsions:
REMARK  status: ('A' for Active; 'I' for Inactive)
REMARK    1  A    between atoms: PB_1  and  O3A_8 
REMARK    2  A    between atoms: PA_5  and  O3A_8 
REMARK    3  A    between atoms: PA_5  and  O5_9 
REMARK    4  A    between atoms: O5_9  and  C5_10 
REMARK    5  A    between atoms: C5_10  and  C4_11 
REMARK    6  A    between atoms: C3_13  and  O3_14 
REMARK    7  A    between atoms: C2_15  and  O2_16 
REMARK    8  A    between atoms: C1_17  and  N9_18 
ROOT
ATOM      1  C4  ADP A   1      37.486   6.737  15.301  1.00  0.00     0.180 C 
ATOM      2  O4  ADP A   1      36.650   6.399  16.404  1.00  0.00    -0.353 OA
ATOM      3  C3  ADP A   1      38.586   7.621  15.890  1.00  0.00     0.182 C 
ATOM      4  C2  ADP A   1      38.543   7.343  17.378  1.00  0.00     0.198 C 
ATOM      5  C1  ADP A   1      37.046   7.160  17.530  1.00  0.00     0.262 C 
ENDROOT
BRANCH   5   6
ATOM      6  N9  ADP A   1      36.648   6.457  18.768  1.00  0.00    -0.297 N 
ATOM      7  C8  ADP A   1      35.743   6.983  19.632  1.00  0.00     0.188 A 
ATOM      8  N7  ADP A   1      35.494   6.179  20.696  1.00  0.00    -0.346 N 
ATOM      9  C5  ADP A   1      36.303   5.152  20.468  1.00  0.00     0.122 A 
ATOM     10  H7  ADP A   1      34.850   6.325  21.472  1.00  0.00     0.167 HD
ATOM     11  C6  ADP A   1      36.529   3.945  21.216  1.00  0.00     0.131 A 
ATOM     12  C4  ADP A   1      37.055   5.281  19.229  1.00  0.00     0.142 A 
ATOM     13  N6  ADP A   1      35.885   3.756  22.387  1.00  0.00    -0.383 N 
ATOM     14  N1  ADP A   1      37.411   3.071  20.723  1.00  0.00    -0.337 N 
ATOM     15  H10 ADP A   1      36.042   2.894  22.928  1.00  0.00     0.157 HD
ATOM     16  H11 ADP A   1      35.236   4.475  22.740  1.00  0.00     0.157 HD
ATOM     17  C2  ADP A   1      38.054   3.288  19.564  1.00  0.00     0.183 A 
ATOM     18  H1  ADP A   1      37.601   2.213  21.242  1.00  0.00     0.168 HD
ATOM     19  N3  ADP A   1      37.911   4.369  18.791  1.00  0.00    -0.336 N 
ATOM     20  H3  ADP A   1      38.427   4.486  17.919  1.00  0.00     0.168 HD
ENDBRANCH   5   6
BRANCH   4  21
ATOM     21  O2  ADP A   1      39.072   8.361  18.218  1.00  0.00    -0.388 OA
ATOM     22  H7  ADP A   1      39.146   8.031  19.105  1.00  0.00     0.210 HD
ENDBRANCH   4  21
BRANCH   1  23
ATOM     23  C5  ADP A   1      37.905   5.429  14.649  1.00  0.00     0.216 C 
BRANCH  23  24
ATOM     24  O5  ADP A   1      36.726   4.631  14.537  1.00  0.00    -0.287 OA
BRANCH  24  25
ATOM     25  PA  ADP A   1      36.511   3.627  13.315  1.00  0.00     0.418 P 
ATOM     26  O1A ADP A   1      35.100   3.106  13.468  1.00  0.00    -0.624 OA
ATOM     27  O2A ADP A   1      36.844   4.279  12.002  1.00  0.00    -0.624 OA
BRANCH  25  28
ATOM     28  O3A ADP A   1      37.482   2.373  13.615  1.00  0.00    -0.173 OA
BRANCH  28  29
ATOM     29  PB  ADP A   1      37.785   1.004  12.840  1.00  0.00     0.431 P 
ATOM     30  O1B ADP A   1      39.194   1.204  12.330  1.00  0.00    -0.616 OA
ATOM     31  O2B ADP A   1      37.679  -0.074  13.864  1.00  0.00    -0.616 OA
ATOM     32  O3B ADP A   1      36.782   0.909  11.715  1.00  0.00    -0.616 OA
ENDBRANCH  28  29
ENDBRANCH  25  28
ENDBRANCH  24  25
ENDBRANCH  23  24
ENDBRANCH   1  23
BRANCH   3  33
ATOM     33  O3  ADP A   1      38.251   8.979  15.643  1.00  0.00    -0.390 OA
ATOM     34  H5  ADP A   1      38.046   9.409  16.465  1.00  0.00     0.210 HD
ENDBRANCH   3  33
TORSDOF 8
ENDMDL
MODEL 4
REMARK VINA RESULT:      -6.5      2.542      4.381
REMARK  8 active torsions:
REMARK  status: ('A' for Active; 'I' for Inactive)
REMARK    1  A    between atoms: PB_1  and  O3A_8 
REMARK    2  A    between atoms: PA_5  and  O3A_8 
REMARK    3  A    between atoms: PA_5  and  O5_9 
REMARK    4  A    between atoms: O5_9  and  C5_10 
REMARK    5  A    between atoms: C5_10  and  C4_11 
REMARK    6  A    between atoms: C3_13  and  O3_14 
REMARK    7  A    between atoms: C2_15  and  O2_16 
REMARK    8  A    between atoms: C1_17  and  N9_18 
ROOT
ATOM      1  C4  ADP A   1      39.758   3.513  18.214  1.00  0.00     0.180 C 
ATOM      2  O4  ADP A   1      39.459   4.899  18.356  1.00  0.00    -0.353 OA
ATOM      3  C3  ADP A   1      38.930   2.815  19.294  1.00  0.00     0.182 C 
ATOM      4  C2  ADP A   1      37.867   3.825  19.673  1.00  0.00     0.198 C 
ATOM      5  C1  ADP A   1      38.696   5.086  19.532  1.00  0.00     0.262 C 
ENDROOT
BRANCH   5   6
ATOM      6  N9  ADP A   1      37.895   6.322  19.411  1.00  0.00    -0.297 N 
ATOM      7  C8  ADP A   1      37.632   7.115  20.482  1.00  0.00     0.188 A 
ATOM      8  N7  ADP A   1      36.901   8.213  20.164  1.00  0.00    -0.346 N 
ATOM      9  C5  ADP A   1      36.698   8.050  18.864  1.00  0.00     0.122 A 
ATOM     10  H7  ADP A   1      36.588   8.970  20.770  1.00  0.00     0.167 HD
ATOM     11  C6  ADP A   1      35.995   8.862  17.908  1.00  0.00     0.131 A 
ATOM     12  C4  ADP A   1      37.333   6.853  18.332  1.00  0.00     0.142 A 
ATOM     13  N6  ADP A   1      35.362   9.980  18.324  1.00  0.00    -0.383 N 
ATOM     14  N1  ADP A   1      35.970   8.442  16.641  1.00  0.00    -0.337 N 
ATOM     15  H10 ADP A   1      34.855  10.566  17.645  1.00  0.00     0.157 HD
ATOM     16  H11 ADP A   1      35.385  10.246  19.319  1.00  0.00     0.157 HD
ATOM     17  C2  ADP A   1      36.592   7.316  16.254  1.00  0.00     0.183 A 
ATOM     18  H1  ADP A   1      35.464   8.992  15.946  1.00  0.00     0.168 HD
ATOM     19  N3  ADP A   1      37.278   6.496  17.057  1.00  0.00    -0.336 N 
ATOM     20  H3  ADP A   1      37.730   5.650  16.711  1.00  0.00     0.168 HD
ENDBRANCH   5   6
BRANCH   4  21
ATOM     21  O2  ADP A   1      37.294   3.671  20.965  1.00  0.00    -0.388 OA
ATOM     22  H7  ADP A   1      36.405   3.349  20.880  1.00  0.00     0.210 HD
ENDBRANCH   4  21
BRANCH   1  23
ATOM     23  C5  ADP A   1      39.481   3.148  16.765  1.00  0.00     0.216 C 
BRANCH  23  24
ATOM     24  O5  ADP A   1      38.688   4.203  16.221  1.00  0.00    -0.287 OA
BRANCH  24  25
ATOM     25  PA  ADP A   1      38.516   4.390  14.645  1.00  0.00     0.418 P 
ATOM     26  O1A ADP A   1      39.063   5.767  14.342  1.00  0.00    -0.624 OA
ATOM     27  O2A ADP A   1      39.125   3.246  13.885  1.00  0.00    -0.624 OA
BRANCH  25  28
ATOM     28  O3A ADP A   1      36.923   4.481  14.397  1.00  0.00    -0.173 OA
BRANCH  28  29
ATOM     29  PB  ADP A   1      35.982   4.149  13.143  1.00  0.00     0.431 P 
ATOM     30  O1B ADP A   1      35.428   2.784  13.484  1.00  0.00    -0.616 OA
ATOM     31  O2B ADP A   1      34.942   5.216  13.122  1.00  0.00    -0.616 OA
ATOM     32  O3B ADP A   1      36.876   4.111  11.925  1.00  0.00    -0.616 OA
ENDBRANCH  28  29
ENDBRANCH  25  28
ENDBRANCH  24  25
ENDBRANCH  23  24
ENDBRANCH   1  23
BRANCH   3  33
ATOM     33  O3  ADP A   1      39.771   2.557  20.409  1.00  0.00    -0.390 OA
ATOM     34  H5  ADP A   1      39.731   1.633  20.629  1.00  0.00     0.210 HD
ENDBRANCH   3  33
TORSDOF 8
ENDMDL
MODEL 5
REMARK VINA RESULT:      -6.2      1.913      3.075
REMARK  8 active torsions:
REMARK  status: ('A' for Active; 'I' for Inactive)
REMARK    1  A    between atoms: PB_1  and  O3A_8 
REMARK    2  A    between atoms: PA_5  and  O3A_8 
REMARK    3  A    between atoms: PA_5  and  O5_9 
REMARK    4  A    between atoms: O5_9  and  C5_10 
REMARK    5  A    between atoms: C5_10  and  C4_11 
REMARK    6  A    between atoms: C3_13  and  O3_14 
REMARK    7  A    between atoms: C2_15  and  O2_16 
REMARK    8  A    between atoms: C1_17  and  N9_18 
ROOT
ATOM      1  C4  ADP A   1      38.476   5.608  15.701  1.00  0.00     0.180 C 
ATOM      2  O4  ADP A   1      37.675   5.322  16.845  1.00  0.00    -0.353 OA
ATOM      3  C3  ADP A   1      39.889   5.817  16.247  1.00  0.00     0.182 C 
ATOM      4  C2  ADP A   1      39.867   5.179  17.620  1.00  0.00     0.198 C 
ATOM      5  C1  ADP A   1      38.447   5.538  18.011  1.00  0.00     0.262 C 
ENDROOT
BRANCH   5   6
ATOM      6  N9  ADP A   1      37.905   4.726  19.121  1.00  0.00    -0.297 N 
ATOM      7  C8  ADP A   1      38.240   3.420  19.286  1.00  0.00     0.188 A 
ATOM      8  N7  ADP A   1      37.658   2.855  20.372  1.00  0.00    -0.346 N 
ATOM      9  C5  ADP A   1      36.928   3.853  20.853  1.00  0.00     0.122 A 
ATOM     10  H7  ADP A   1      37.755   1.906  20.730  1.00  0.00     0.167 HD
ATOM     11  C6  ADP A   1      36.064   3.925  22.000  1.00  0.00     0.131 A 
ATOM     12  C4  ADP A   1      37.068   5.084  20.087  1.00  0.00     0.142 A 
ATOM     13  N6  ADP A   1      35.865   2.822  22.753  1.00  0.00    -0.383 N 
ATOM     14  N1  ADP A   1      35.461   5.091  22.246  1.00  0.00    -0.337 N 
ATOM     15  H10 ADP A   1      35.247   2.865  23.576  1.00  0.00     0.157 HD
ATOM     16  H11 ADP A   1      36.330   1.937  22.504  1.00  0.00     0.157 HD
ATOM     17  C2  ADP A   1      35.660   6.171  21.472  1.00  0.00     0.183 A 
ATOM     18  H1  ADP A   1      34.831   5.164  23.045  1.00  0.00     0.168 HD
ATOM     19  N3  ADP A   1      36.447   6.213  20.391  1.00  0.00    -0.336 N 
ATOM     20  H3  ADP A   1      36.560   7.061  19.836  1.00  0.00     0.168 HD
ENDBRANCH   5   6
BRANCH   4  21
ATOM     21  O2  ADP A   1      40.840   5.652  18.542  1.00  0.00    -0.388 OA
ATOM     22  H7  ADP A   1      41.251   4.913  18.974  1.00  0.00     0.210 HD
ENDBRANCH   4  21
BRANCH   1  23
ATOM     23  C5  ADP A   1      38.259   4.472  14.716  1.00  0.00     0.216 C 
BRANCH  23  24
ATOM     24  O5  ADP A   1      37.284   4.925  13.775  1.00  0.00    -0.287 OA
BRANCH  24  25
ATOM     25  PA  ADP A   1      36.259   3.916  13.085  1.00  0.00     0.418 P 
ATOM     26  O1A ADP A   1      34.941   4.138  13.791  1.00  0.00    -0.624 OA
ATOM     27  O2A ADP A   1      36.252   4.074  11.590  1.00  0.00    -0.624 OA
BRANCH  25  28
ATOM     28  O3A ADP A   1      36.752   2.441  13.519  1.00  0.00    -0.173 OA
BRANCH  28  29
ATOM     29  PB  ADP A   1      37.497   1.254  12.741  1.00  0.00     0.431 P 
ATOM     30  O1B ADP A   1      38.763   1.914  12.243  1.00  0.00    -0.616 OA
ATOM     31  O2B ADP A   1      37.749   0.196  13.760  1.00  0.00    -0.616 OA
ATOM     32  O3B ADP A   1      36.589   0.839  11.607  1.00  0.00    -0.616 OA
ENDBRANCH  28  29
ENDBRANCH  25  28
ENDBRANCH  24  25
ENDBRANCH  23  24
ENDBRANCH   1  23
BRANCH   3  33
ATOM     33  O3  ADP A   1      40.124   7.213  16.366  1.00  0.00    -0.390 OA
ATOM     34  H5  ADP A   1      39.293   7.667  16.450  1.00  0.00     0.210 HD
ENDBRANCH   3  33
TORSDOF 8
ENDMDL
MODEL 6
REMARK VINA RESULT:      -5.9      2.765      4.015
REMARK  8 active torsions:
REMARK  status: ('A' for Active; 'I' for Inactive)
REMARK    1  A    between atoms: PB_1  and  O3A_8 
REMARK    2  A    between atoms: PA_5  and  O3A_8 
REMARK    3  A    between atoms: PA_5  and  O5_9 
REMARK    4  A    between atoms: O5_9  and  C5_10 
REMARK    5  A    between atoms: C5_10  and  C4_11 
REMARK    6  A    between atoms: C3_13  and  O3_14 
REMARK    7  A    between atoms: C2_15  and  O2_16 
REMARK    8  A    between atoms: C1_17  and  N9_18 
ROOT
ATOM      1  C4  ADP A   1      40.119   3.943  16.649  1.00  0.00     0.180 C 
ATOM      2  O4  ADP A   1      39.978   4.922  17.674  1.00  0.00    -0.353 OA
ATOM      3  C3  ADP A   1      40.138   2.600  17.381  1.00  0.00     0.182 C 
ATOM      4  C2  ADP A   1      39.544   2.898  18.742  1.00  0.00     0.198 C 
ATOM      5  C1  ADP A   1      40.111   4.291  18.934  1.00  0.00     0.262 C 
ENDROOT
BRANCH   5   6
ATOM      6  N9  ADP A   1      39.413   5.088  19.964  1.00  0.00    -0.297 N 
ATOM      7  C8  ADP A   1      39.944   5.290  21.198  1.00  0.00     0.188 A 
ATOM      8  N7  ADP A   1      39.163   6.064  21.991  1.00  0.00    -0.346 N 
ATOM      9  C5  ADP A   1      38.119   6.306  21.211  1.00  0.00     0.122 A 
ATOM     10  H7  ADP A   1      39.336   6.381  22.945  1.00  0.00     0.167 HD
ATOM     11  C6  ADP A   1      36.923   7.070  21.443  1.00  0.00     0.131 A 
ATOM     12  C4  ADP A   1      38.242   5.709  19.889  1.00  0.00     0.142 A 
ATOM     13  N6  ADP A   1      36.722   7.641  22.650  1.00  0.00    -0.383 N 
ATOM     14  N1  ADP A   1      36.037   7.148  20.446  1.00  0.00    -0.337 N 
ATOM     15  H10 ADP A   1      35.868   8.190  22.824  1.00  0.00     0.157 HD
ATOM     16  H11 ADP A   1      37.423   7.527  23.397  1.00  0.00     0.157 HD
ATOM     17  C2  ADP A   1      36.251   6.556  19.260  1.00  0.00     0.183 A 
ATOM     18  H1  ADP A   1      35.174   7.672  20.591  1.00  0.00     0.168 HD
ATOM     19  N3  ADP A   1      37.328   5.832  18.939  1.00  0.00    -0.336 N 
ATOM     20  H3  ADP A   1      37.438   5.401  18.021  1.00  0.00     0.168 HD
ENDBRANCH   5   6
BRANCH   4  21
ATOM     21  O2  ADP A   1      39.898   1.999  19.785  1.00  0.00    -0.388 OA
ATOM     22  H7  ADP A   1      39.163   1.902  20.379  1.00  0.00     0.210 HD
ENDBRANCH   4  21
BRANCH   1  23
ATOM     23  C5  ADP A   1      39.000   4.187  15.649  1.00  0.00     0.216 C 
BRANCH  23  24
ATOM     24  O5  ADP A   1      38.571   5.536  15.837  1.00  0.00    -0.287 OA
BRANCH  24  25
ATOM     25  PA  ADP A   1      37.341   6.141  15.018  1.00  0.00     0.418 P 
ATOM     26  O1A ADP A   1      36.536   6.928  16.028  1.00  0.00    -0.624 OA
ATOM     27  O2A ADP A   1      37.805   6.891  13.801  1.00  0.00    -0.624 OA
BRANCH  25  28
ATOM     28  O3A ADP A   1      36.428   4.871  14.616  1.00  0.00    -0.173 OA
BRANCH  28  29
ATOM     29  PB  ADP A   1      35.813   4.350  13.231  1.00  0.00     0.431 P 
ATOM     30  O1B ADP A   1      37.004   4.364  12.301  1.00  0.00    -0.616 OA
ATOM     31  O2B ADP A   1      35.299   2.979  13.506  1.00  0.00    -0.616 OA
ATOM     32  O3B ADP A   1      34.759   5.351  12.819  1.00  0.00    -0.616 OA
ENDBRANCH  28  29
ENDBRANCH  25  28
ENDBRANCH  24  25
ENDBRANCH  23  24
ENDBRANCH   1  23
BRANCH   3  33
ATOM     33  O3  ADP A   1      41.489   2.185  17.523  1.00  0.00    -0.390 OA
ATOM     34  H5  ADP A   1      41.649   1.932  18.425  1.00  0.00     0.210 HD
ENDBRANCH   3  33
TORSDOF 8
ENDMDL
MODEL 7
REMARK VINA RESULT:      -5.5      1.873      3.159
REMARK  8 active torsions:
REMARK  status: ('A' for Active; 'I' for Inactive)
REMARK    1  A    between atoms: PB_1  and  O3A_8 
REMARK    2  A    between atoms: PA_5  and  O3A_8 
REMARK    3  A    between atoms: PA_5  and  O5_9 
REMARK    4  A    between atoms: O5_9  and  C5_10 
REMARK    5  A    between atoms: C5_10  and  C4_11 
REMARK    6  A    between atoms: C3_13  and  O3_14 
REMARK    7  A    between atoms: C2_15  and  O2_16 
REMARK    8  A    between atoms: C1_17  and  N9_18 
ROOT
ATOM      1  C4  ADP A   1      37.211   7.022  15.298  1.00  0.00     0.180 C 
ATOM      2  O4  ADP A   1      36.759   7.516  16.557  1.00  0.00    -0.353 OA
ATOM      3  C3  ADP A   1      38.699   7.368  15.245  1.00  0.00     0.182 C 
ATOM      4  C2  ADP A   1      39.082   7.631  16.687  1.00  0.00     0.198 C 
ATOM      5  C1  ADP A   1      37.793   8.282  17.146  1.00  0.00     0.262 C 
ENDROOT
BRANCH   5   6
ATOM      6  N9  ADP A   1      37.618   8.303  18.613  1.00  0.00    -0.297 N 
ATOM      7  C8  ADP A   1      37.814   9.432  19.343  1.00  0.00     0.188 A 
ATOM      8  N7  ADP A   1      37.584   9.254  20.668  1.00  0.00    -0.346 N 
ATOM      9  C5  ADP A   1      37.269   7.967  20.730  1.00  0.00     0.122 A 
ATOM     10  H7  ADP A   1      37.639   9.935  21.424  1.00  0.00     0.167 HD
ATOM     11  C6  ADP A   1      36.910   7.135  21.846  1.00  0.00     0.131 A 
ATOM     12  C4  ADP A   1      37.263   7.317  19.428  1.00  0.00     0.142 A 
ATOM     13  N6  ADP A   1      36.909   7.656  23.091  1.00  0.00    -0.383 N 
ATOM     14  N1  ADP A   1      36.626   5.854  21.595  1.00  0.00    -0.337 N 
ATOM     15  H10 ADP A   1      36.654   7.066  23.896  1.00  0.00     0.157 HD
ATOM     16  H11 ADP A   1      37.165   8.644  23.237  1.00  0.00     0.157 HD
ATOM     17  C2  ADP A   1      36.650   5.353  20.349  1.00  0.00     0.183 A 
ATOM     18  H1  ADP A   1      36.383   5.239  22.371  1.00  0.00     0.168 HD
ATOM     19  N3  ADP A   1      36.962   6.040  19.245  1.00  0.00    -0.336 N 
ATOM     20  H3  ADP A   1      36.968   5.609  18.321  1.00  0.00     0.168 HD
ENDBRANCH   5   6
BRANCH   4  21
ATOM     21  O2  ADP A   1      40.227   8.450  16.887  1.00  0.00    -0.388 OA
ATOM     22  H7  ADP A   1      40.340   8.611  17.816  1.00  0.00     0.210 HD
ENDBRANCH   4  21
BRANCH   1  23
ATOM     23  C5  ADP A   1      36.824   5.553  15.236  1.00  0.00     0.216 C 
BRANCH  23  24
ATOM     24  O5  ADP A   1      36.222   5.341  13.959  1.00  0.00    -0.287 OA
BRANCH  24  25
ATOM     25  PA  ADP A   1      36.390   3.960  13.177  1.00  0.00     0.418 P 
ATOM     26  O1A ADP A   1      35.214   3.111  13.607  1.00  0.00    -0.624 OA
ATOM     27  O2A ADP A   1      36.551   4.179  11.699  1.00  0.00    -0.624 OA
BRANCH  25  28
ATOM     28  O3A ADP A   1      37.698   3.262  13.817  1.00  0.00    -0.173 OA
BRANCH  28  29
ATOM     29  PB  ADP A   1      39.254   3.278  13.434  1.00  0.00     0.431 P 
ATOM     30  O1B ADP A   1      39.928   2.892  14.731  1.00  0.00    -0.616 OA
ATOM     31  O2B ADP A   1      39.418   2.257  12.361  1.00  0.00    -0.616 OA
ATOM     32  O3B ADP A   1      39.586   4.692  13.020  1.00  0.00    -0.616 OA
ENDBRANCH  28  29
ENDBRANCH  25  28
ENDBRANCH  24  25
ENDBRANCH  23  24
ENDBRANCH   1  23
BRANCH   3  33
ATOM     33  O3  ADP A   1      38.859   8.553  14.478  1.00  0.00    -0.390 OA
ATOM     34  H5  ADP A   1      39.771   8.648  14.230  1.00  0.00     0.210 HD
ENDBRANCH   3  33
TORSDOF 8
ENDMDL
MODEL 8
REMARK VINA RESULT:      -5.3      4.376      5.943
REMARK  8 active torsions:
REMARK  status: ('A' for Active; 'I' for Inactive)
REMARK    1  A    between atoms: PB_1  and  O3A_8 
REMARK    2  A    between atoms: PA_5  and  O3A_8 
REMARK    3  A    between atoms: PA_5  and  O5_9 
REMARK    4  A    between atoms: O5_9  and  C5_10 
REMARK    5  A    between atoms: C5_10  and  C4_11 
REMARK    6  A    between atoms: C3_13  and  O3_14 
REMARK    7  A    between atoms: C2_15  and  O2_16 
REMARK    8  A    between atoms: C1_17  and  N9_18 
ROOT
ATOM      1  C4  ADP A   1      39.176   5.072  17.952  1.00  0.00     0.180 C 
ATOM      2  O4  ADP A   1      38.891   3.852  17.274  1.00  0.00    -0.353 OA
ATOM      3  C3  ADP A   1      40.496   4.822  18.684  1.00  0.00     0.182 C 
ATOM      4  C2  ADP A   1      41.094   3.616  17.990  1.00  0.00     0.198 C 
ATOM      5  C1  ADP A   1      39.811   2.864  17.699  1.00  0.00     0.262 C 
ENDROOT
BRANCH   5   6
ATOM      6  N9  ADP A   1      39.943   1.828  16.654  1.00  0.00    -0.297 N 
ATOM      7  C8  ADP A   1      40.164   0.523  16.961  1.00  0.00     0.188 A 
ATOM      8  N7  ADP A   1      40.234  -0.274  15.866  1.00  0.00    -0.346 N 
ATOM      9  C5  ADP A   1      40.080   0.592  14.874  1.00  0.00     0.122 A 
ATOM     10  H7  ADP A   1      40.371  -1.283  15.818  1.00  0.00     0.167 HD
ATOM     11  C6  ADP A   1      40.052   0.402  13.449  1.00  0.00     0.131 A 
ATOM     12  C4  ADP A   1      39.874   1.958  15.335  1.00  0.00     0.142 A 
ATOM     13  N6  ADP A   1      40.253  -0.831  12.939  1.00  0.00    -0.383 N 
ATOM     14  N1  ADP A   1      39.862   1.482  12.686  1.00  0.00    -0.337 N 
ATOM     15  H10 ADP A   1      40.236  -0.976  11.919  1.00  0.00     0.157 HD
ATOM     16  H11 ADP A   1      40.426  -1.628  13.569  1.00  0.00     0.157 HD
ATOM     17  C2  ADP A   1      39.681   2.703  13.216  1.00  0.00     0.183 A 
ATOM     18  H1  ADP A   1      39.853   1.376  11.671  1.00  0.00     0.168 HD
ATOM     19  N3  ADP A   1      39.681   2.986  14.523  1.00  0.00    -0.336 N 
ATOM     20  H3  ADP A   1      39.542   3.934  14.873  1.00  0.00     0.168 HD
ENDBRANCH   5   6
BRANCH   4  21
ATOM     21  O2  ADP A   1      42.027   2.860  18.751  1.00  0.00    -0.388 OA
ATOM     22  H7  ADP A   1      41.560   2.232  19.288  1.00  0.00     0.210 HD
ENDBRANCH   4  21
BRANCH   1  23
ATOM     23  C5  ADP A   1      39.145   6.175  16.907  1.00  0.00     0.216 C 
BRANCH  23  24
ATOM     24  O5  ADP A   1      38.804   5.555  15.667  1.00  0.00    -0.287 OA
BRANCH  24  25
ATOM     25  PA  ADP A   1      37.476   5.951  14.874  1.00  0.00     0.418 P 
ATOM     26  O1A ADP A   1      36.534   6.501  15.921  1.00  0.00    -0.624 OA
ATOM     27  O2A ADP A   1      37.778   6.849  13.707  1.00  0.00    -0.624 OA
BRANCH  25  28
ATOM     28  O3A ADP A   1      36.833   4.551  14.391  1.00  0.00    -0.173 OA
BRANCH  28  29
ATOM     29  PB  ADP A   1      35.898   4.135  13.157  1.00  0.00     0.431 P 
ATOM     30  O1B ADP A   1      36.857   4.132  11.988  1.00  0.00    -0.616 OA
ATOM     31  O2B ADP A   1      35.371   2.781  13.487  1.00  0.00    -0.616 OA
ATOM     32  O3B ADP A   1      34.846   5.211  13.026  1.00  0.00    -0.616 OA
ENDBRANCH  28  29
ENDBRANCH  25  28
ENDBRANCH  24  25
ENDBRANCH  23  24
ENDBRANCH   1  23
BRANCH   3  33
ATOM     33  O3  ADP A   1      40.207   4.507  20.038  1.00  0.00    -0.390 OA
ATOM     34  H5  ADP A   1      40.862   4.902  20.601  1.00  0.00     0.210 HD
ENDBRANCH   3  33
TORSDOF 8
ENDMDL
MODEL 9
REMARK VINA RESULT:      -4.9      2.595      3.832
REMARK  8 active torsions:
REMARK  status: ('A' for Active; 'I' for Inactive)
REMARK    1  A    between atoms: PB_1  and  O3A_8 
REMARK    2  A    between atoms: PA_5  and  O3A_8 
REMARK    3  A    between atoms: PA_5  and  O5_9 
REMARK    4  A    between atoms: O5_9  and  C5_10 
REMARK    5  A    between atoms: C5_10  and  C4_11 
REMARK    6  A    between atoms: C3_13  and  O3_14 
REMARK    7  A    between atoms: C2_15  and  O2_16 
REMARK    8  A    between atoms: C1_17  and  N9_18 
ROOT
ATOM      1  C4  ADP A   1      39.622   4.590  15.980  1.00  0.00     0.180 C 
ATOM      2  O4  ADP A   1      39.497   5.424  17.129  1.00  0.00    -0.353 OA
ATOM      3  C3  ADP A   1      39.820   3.178  16.533  1.00  0.00     0.182 C 
ATOM      4  C2  ADP A   1      39.333   3.257  17.965  1.00  0.00     0.198 C 
ATOM      5  C1  ADP A   1      39.799   4.663  18.284  1.00  0.00     0.262 C 
ENDROOT
BRANCH   5   6
ATOM      6  N9  ADP A   1      39.137   5.264  19.460  1.00  0.00    -0.297 N 
ATOM      7  C8  ADP A   1      39.681   5.197  20.703  1.00  0.00     0.188 A 
ATOM      8  N7  ADP A   1      38.935   5.826  21.644  1.00  0.00    -0.346 N 
ATOM      9  C5  ADP A   1      37.897   6.256  20.940  1.00  0.00     0.122 A 
ATOM     10  H7  ADP A   1      39.123   5.939  22.640  1.00  0.00     0.167 HD
ATOM     11  C6  ADP A   1      36.733   7.004  21.334  1.00  0.00     0.131 A 
ATOM     12  C4  ADP A   1      37.991   5.931  19.525  1.00  0.00     0.142 A 
ATOM     13  N6  ADP A   1      36.560   7.330  22.633  1.00  0.00    -0.383 N 
ATOM     14  N1  ADP A   1      35.846   7.311  20.384  1.00  0.00    -0.337 N 
ATOM     15  H10 ADP A   1      35.729   7.864  22.923  1.00  0.00     0.157 HD
ATOM     16  H11 ADP A   1      37.258   7.043  23.334  1.00  0.00     0.157 HD
ATOM     17  C2  ADP A   1      36.031   6.960  19.101  1.00  0.00     0.183 A 
ATOM     18  H1  ADP A   1      35.005   7.828  20.640  1.00  0.00     0.168 HD
ATOM     19  N3  ADP A   1      37.078   6.275  18.629  1.00  0.00    -0.336 N 
ATOM     20  H3  ADP A   1      37.167   6.032  17.643  1.00  0.00     0.168 HD
ENDBRANCH   5   6
BRANCH   4  21
ATOM     21  O2  ADP A   1      39.855   2.277  18.854  1.00  0.00    -0.388 OA
ATOM     22  H7  ADP A   1      39.149   1.720  19.159  1.00  0.00     0.210 HD
ENDBRANCH   4  21
BRANCH   1  23
ATOM     23  C5  ADP A   1      38.399   4.846  15.115  1.00  0.00     0.216 C 
BRANCH  23  24
ATOM     24  O5  ADP A   1      38.876   5.080  13.790  1.00  0.00    -0.287 OA
BRANCH  24  25
ATOM     25  PA  ADP A   1      38.463   4.129  12.575  1.00  0.00     0.418 P 
ATOM     26  O1A ADP A   1      37.182   4.715  12.026  1.00  0.00    -0.624 OA
ATOM     27  O2A ADP A   1      39.594   3.960  11.600  1.00  0.00    -0.624 OA
BRANCH  25  28
ATOM     28  O3A ADP A   1      38.053   2.723  13.253  1.00  0.00    -0.173 OA
BRANCH  28  29
ATOM     29  PB  ADP A   1      36.841   1.700  13.022  1.00  0.00     0.431 P 
ATOM     30  O1B ADP A   1      37.260   0.488  13.823  1.00  0.00    -0.616 OA
ATOM     31  O2B ADP A   1      35.631   2.375  13.569  1.00  0.00    -0.616 OA
ATOM     32  O3B ADP A   1      36.792   1.411  11.540  1.00  0.00    -0.616 OA
ENDBRANCH  28  29
ENDBRANCH  25  28
ENDBRANCH  24  25
ENDBRANCH  23  24
ENDBRANCH   1  23
BRANCH   3  33
ATOM     33  O3  ADP A   1      41.208   2.876  16.509  1.00  0.00    -0.390 OA
ATOM     34  H5  ADP A   1      41.619   3.337  15.787  1.00  0.00     0.210 HD
ENDBRANCH   3  33
TORSDOF 8
ENDMDL
