MODEL 1
REMARK VINA RESULT:      -9.0      1.292      1.643
REMARK  5 active torsions:
REMARK  status: ('A' for Active; 'I' for Inactive)
REMARK    1  A    between atoms: C1_1  and  C7_7 
REMARK    2  A    between atoms: C7_7  and  N1_8 
REMARK    3  A    between atoms: C8_12  and  C1'_13 
REMARK    4  A    between atoms: C5'_17  and  C1''_20 
REMARK    5  A    between atoms: C6'_18  and  O6'_19 
ROOT
ATOM      1  C1  MOL A   1      44.165  -3.125  26.483  1.00  0.00     0.008 A 
ATOM      2  C2  MOL A   1      44.229  -1.690  26.495  1.00  0.00     0.017 A 
ATOM      3  C3  MOL A   1      44.101  -0.941  27.664  1.00  0.00     0.031 A 
ATOM      4  C4  MOL A   1      43.912  -1.637  28.812  1.00  0.00     0.043 A 
ATOM      5  C5  MOL A   1      43.847  -2.970  28.876  1.00  0.00    -0.006 A 
ATOM      6  C6  MOL A   1      43.965  -3.772  27.736  1.00  0.00     0.029 A 
ATOM      7  N3  MOL A   1      43.787  -1.189  30.008  1.00  0.00    -0.355 N 
ATOM      8  CN4 MOL A   1      43.673  -3.402  30.120  1.00  0.00     0.044 A 
ATOM      9  C8  MOL A   1      43.648  -2.243  30.751  1.00  0.00     0.046 A 
ATOM     10  H8  MOL A   1      43.795  -0.205  30.312  1.00  0.00     0.166 HD
ENDROOT
BRANCH   9  11
ATOM     11  C1' MOL A   1      43.428  -2.172  32.128  1.00  0.00     0.025 A 
ATOM     12  C2' MOL A   1      42.507  -3.004  32.755  1.00  0.00     0.016 A 
ATOM     13  C3' MOL A   1      42.277  -2.940  34.110  1.00  0.00     0.002 A 
ATOM     14  C4' MOL A   1      42.967  -2.033  34.879  1.00  0.00     0.015 A 
ATOM     15  C5' MOL A   1      43.919  -1.152  34.318  1.00  0.00     0.008 A 
ATOM     16  C6' MOL A   1      44.124  -1.253  32.941  1.00  0.00     0.089 A 
BRANCH  15  17
ATOM     17  C1' MOL A   1      44.592  -0.212  35.134  1.00  0.00    -0.023 A 
ATOM     18  C2' MOL A   1      45.821  -0.471  35.725  1.00  0.00     0.012 A 
ATOM     19  C3' MOL A   1      46.453   0.441  36.542  1.00  0.00     0.001 A 
ATOM     20  C4' MOL A   1      45.881   1.661  36.802  1.00  0.00     0.000 A 
ATOM     21  C5' MOL A   1      44.652   1.979  36.236  1.00  0.00     0.001 A 
ATOM     22  C6' MOL A   1      44.024   1.048  35.412  1.00  0.00     0.012 A 
ENDBRANCH  15  17
BRANCH  16  23
ATOM     23  O6' MOL A   1      45.061  -0.430  32.352  1.00  0.00    -0.359 OA
ATOM     24  H13 MOL A   1      45.860  -0.921  32.198  1.00  0.00     0.218 HD
ENDBRANCH  16  23
ENDBRANCH   9  11
BRANCH   1  25
ATOM     25  C7  MOL A   1      44.313  -3.821  25.268  1.00  0.00     0.102 C 
ATOM     26  N2  MOL A   1      44.055  -5.113  25.220  1.00  0.00    -0.385 N 
ATOM     27  H6  MOL A   1      43.745  -5.609  26.068  1.00  0.00     0.157 HD
ATOM     28  H7  MOL A   1      44.164  -5.627  24.334  1.00  0.00     0.157 HD
BRANCH  25  29
ATOM     29  N1  MOL A   1      44.708  -3.194  24.184  1.00  0.00    -0.385 N 
ATOM     30  H4  MOL A   1      45.505  -2.542  24.228  1.00  0.00     0.157 HD
ATOM     31  H5  MOL A   1      44.220  -3.353  23.291  1.00  0.00     0.157 HD
ENDBRANCH  25  29
ENDBRANCH   1  25
TORSDOF 5
ENDMDL
MODEL 2
REMARK VINA RESULT:      -8.4      3.183      3.598
REMARK  5 active torsions:
REMARK  status: ('A' for Active; 'I' for Inactive)
REMARK    1  A    between atoms: C1_1  and  C7_7 
REMARK    2  A    between atoms: C7_7  and  N1_8 
REMARK    3  A    between atoms: C8_12  and  C1'_13 
REMARK    4  A    between atoms: C5'_17  and  C1''_20 
REMARK    5  A    between atoms: C6'_18  and  O6'_19 
ROOT
ATOM      1  C1  MOL A   1      44.030  -3.061  26.514  1.00  0.00     0.008 A 
ATOM      2  C2  MOL A   1      44.435  -1.686  26.611  1.00  0.00     0.017 A 
ATOM      3  C3  MOL A   1      44.106  -0.881  27.701  1.00  0.00     0.031 A 
ATOM      4  C4  MOL A   1      43.375  -1.461  28.684  1.00  0.00     0.043 A 
ATOM      5  C5  MOL A   1      42.968  -2.734  28.662  1.00  0.00    -0.006 A 
ATOM      6  C6  MOL A   1      43.266  -3.587  27.594  1.00  0.00     0.029 A 
ATOM      7  N3  MOL A   1      42.965  -0.947  29.786  1.00  0.00    -0.355 N 
ATOM      8  CN4 MOL A   1      42.283  -3.058  29.752  1.00  0.00     0.044 A 
ATOM      9  C8  MOL A   1      42.330  -1.903  30.389  1.00  0.00     0.046 A 
ATOM     10  H8  MOL A   1      43.110   0.017  30.119  1.00  0.00     0.166 HD
ENDROOT
BRANCH   9  11
ATOM     11  C1' MOL A   1      41.680  -1.724  31.613  1.00  0.00     0.025 A 
ATOM     12  C2' MOL A   1      42.206  -2.243  32.791  1.00  0.00     0.016 A 
ATOM     13  C3' MOL A   1      41.573  -2.078  34.002  1.00  0.00     0.002 A 
ATOM     14  C4' MOL A   1      40.386  -1.386  34.064  1.00  0.00     0.015 A 
ATOM     15  C5' MOL A   1      39.786  -0.829  32.912  1.00  0.00     0.008 A 
ATOM     16  C6' MOL A   1      40.464  -1.016  31.706  1.00  0.00     0.089 A 
BRANCH  15  17
ATOM     17  C1' MOL A   1      38.550  -0.146  33.009  1.00  0.00    -0.023 A 
ATOM     18  C2' MOL A   1      38.462   1.227  33.188  1.00  0.00     0.012 A 
ATOM     19  C3' MOL A   1      37.253   1.878  33.311  1.00  0.00     0.001 A 
ATOM     20  C4' MOL A   1      36.074   1.178  33.254  1.00  0.00     0.000 A 
ATOM     21  C5' MOL A   1      36.099  -0.199  33.072  1.00  0.00     0.001 A 
ATOM     22  C6' MOL A   1      37.327  -0.844  32.951  1.00  0.00     0.012 A 
ENDBRANCH  15  17
BRANCH  16  23
ATOM     23  O6' MOL A   1      39.929  -0.470  30.559  1.00  0.00    -0.359 OA
ATOM     24  H13 MOL A   1      40.428   0.301  30.314  1.00  0.00     0.218 HD
ENDBRANCH  16  23
ENDBRANCH   9  11
BRANCH   1  25
ATOM     25  C7  MOL A   1      44.406  -3.822  25.390  1.00  0.00     0.102 C 
ATOM     26  N2  MOL A   1      44.719  -3.214  24.263  1.00  0.00    -0.385 N 
ATOM     27  H6  MOL A   1      44.689  -2.186  24.207  1.00  0.00     0.157 HD
ATOM     28  H7  MOL A   1      44.992  -3.767  23.438  1.00  0.00     0.157 HD
BRANCH  25  29
ATOM     29  N1  MOL A   1      44.446  -5.133  25.456  1.00  0.00    -0.385 N 
ATOM     30  H4  MOL A   1      44.735  -5.682  24.633  1.00  0.00     0.157 HD
ATOM     31  H5  MOL A   1      44.186  -5.613  26.330  1.00  0.00     0.157 HD
ENDBRANCH  25  29
ENDBRANCH   1  25
TORSDOF 5
ENDMDL
MODEL 3
REMARK VINA RESULT:      -8.4      1.083      1.417
REMARK  5 active torsions:
REMARK  status: ('A' for Active; 'I' for Inactive)
REMARK    1  A    between atoms: C1_1  and  C7_7 
REMARK    2  A    between atoms: C7_7  and  N1_8 
REMARK    3  A    between atoms: C8_12  and  C1'_13 
REMARK    4  A    between atoms: C5'_17  and  C1''_20 
REMARK    5  A    between atoms: C6'_18  and  O6'_19 
ROOT
ATOM      1  C1  MOL A   1      44.240  -3.132  26.615  1.00  0.00     0.008 A 
ATOM      2  C2  MOL A   1      44.774  -1.810  26.786  1.00  0.00     0.017 A 
ATOM      3  C3  MOL A   1      44.730  -1.133  28.004  1.00  0.00     0.031 A 
ATOM      4  C4  MOL A   1      44.153  -1.788  29.041  1.00  0.00     0.043 A 
ATOM      5  C5  MOL A   1      43.640  -3.019  28.955  1.00  0.00    -0.006 A 
ATOM      6  C6  MOL A   1      43.653  -3.744  27.758  1.00  0.00     0.029 A 
ATOM      7  N3  MOL A   1      44.007  -1.396  30.253  1.00  0.00    -0.355 N 
ATOM      8  CN4 MOL A   1      43.150  -3.438  30.116  1.00  0.00     0.044 A 
ATOM      9  C8  MOL A   1      43.418  -2.380  30.859  1.00  0.00     0.046 A 
ATOM     10  H8  MOL A   1      44.296  -0.494  30.659  1.00  0.00     0.166 HD
ENDROOT
BRANCH   9  11
ATOM     11  C1' MOL A   1      43.032  -2.320  32.199  1.00  0.00     0.025 A 
ATOM     12  C2' MOL A   1      43.204  -3.407  33.050  1.00  0.00     0.016 A 
ATOM     13  C3' MOL A   1      42.823  -3.362  34.371  1.00  0.00     0.002 A 
ATOM     14  C4' MOL A   1      42.252  -2.220  34.879  1.00  0.00     0.015 A 
ATOM     15  C5' MOL A   1      42.041  -1.073  34.081  1.00  0.00     0.008 A 
ATOM     16  C6' MOL A   1      42.446  -1.160  32.748  1.00  0.00     0.089 A 
BRANCH  15  17
ATOM     17  C1' MOL A   1      41.425   0.077  34.630  1.00  0.00    -0.023 A 
ATOM     18  C2' MOL A   1      42.125   1.032  35.355  1.00  0.00     0.012 A 
ATOM     19  C3' MOL A   1      41.510   2.133  35.911  1.00  0.00     0.001 A 
ATOM     20  C4' MOL A   1      40.160   2.330  35.759  1.00  0.00     0.000 A 
ATOM     21  C5' MOL A   1      39.407   1.410  35.040  1.00  0.00     0.001 A 
ATOM     22  C6' MOL A   1      40.041   0.302  34.485  1.00  0.00     0.012 A 
ENDBRANCH  15  17
BRANCH  16  23
ATOM     23  O6' MOL A   1      42.282  -0.057  31.936  1.00  0.00    -0.359 OA
ATOM     24  H13 MOL A   1      42.500   0.729  32.424  1.00  0.00     0.218 HD
ENDBRANCH  16  23
ENDBRANCH   9  11
BRANCH   1  25
ATOM     25  C7  MOL A   1      44.327  -3.764  25.359  1.00  0.00     0.102 C 
ATOM     26  N2  MOL A   1      44.638  -3.056  24.291  1.00  0.00    -0.385 N 
ATOM     27  H6  MOL A   1      44.818  -2.046  24.378  1.00  0.00     0.157 HD
ATOM     28  H7  MOL A   1      44.701  -3.513  23.370  1.00  0.00     0.157 HD
BRANCH  25  29
ATOM     29  N1  MOL A   1      44.099  -5.052  25.244  1.00  0.00    -0.385 N 
ATOM     30  H4  MOL A   1      43.243  -5.383  24.775  1.00  0.00     0.157 HD
ATOM     31  H5  MOL A   1      44.775  -5.731  25.622  1.00  0.00     0.157 HD
ENDBRANCH  25  29
ENDBRANCH   1  25
TORSDOF 5
ENDMDL
MODEL 4
REMARK VINA RESULT:      -6.2      2.835      8.337
REMARK  5 active torsions:
REMARK  status: ('A' for Active; 'I' for Inactive)
REMARK    1  A    between atoms: C1_1  and  C7_7 
REMARK    2  A    between atoms: C7_7  and  N1_8 
REMARK    3  A    between atoms: C8_12  and  C1'_13 
REMARK    4  A    between atoms: C5'_17  and  C1''_20 
REMARK    5  A    between atoms: C6'_18  and  O6'_19 
ROOT
ATOM      1  C1  MOL A   1      41.732   1.875  35.292  1.00  0.00     0.008 A 
ATOM      2  C2  MOL A   1      43.078   2.281  34.998  1.00  0.00     0.017 A 
ATOM      3  C3  MOL A   1      43.912   1.557  34.147  1.00  0.00     0.031 A 
ATOM      4  C4  MOL A   1      43.389   0.433  33.597  1.00  0.00     0.043 A 
ATOM      5  C5  MOL A   1      42.146  -0.001  33.824  1.00  0.00    -0.006 A 
ATOM      6  C6  MOL A   1      41.266   0.683  34.670  1.00  0.00     0.029 A 
ATOM      7  N3  MOL A   1      43.938  -0.387  32.777  1.00  0.00    -0.355 N 
ATOM      8  CN4 MOL A   1      41.876  -1.115  33.153  1.00  0.00     0.044 A 
ATOM      9  C8  MOL A   1      43.031  -1.282  32.535  1.00  0.00     0.046 A 
ATOM     10  H8  MOL A   1      44.893  -0.344  32.394  1.00  0.00     0.166 HD
ENDROOT
BRANCH   9  11
ATOM     11  C1' MOL A   1      43.262  -2.390  31.719  1.00  0.00     0.025 A 
ATOM     12  C2' MOL A   1      43.316  -3.676  32.246  1.00  0.00     0.016 A 
ATOM     13  C3' MOL A   1      43.549  -4.776  31.452  1.00  0.00     0.002 A 
ATOM     14  C4' MOL A   1      43.739  -4.616  30.101  1.00  0.00     0.015 A 
ATOM     15  C5' MOL A   1      43.701  -3.343  29.488  1.00  0.00     0.008 A 
ATOM     16  C6' MOL A   1      43.458  -2.256  30.328  1.00  0.00     0.089 A 
BRANCH  15  17
ATOM     17  C1' MOL A   1      43.928  -3.212  28.097  1.00  0.00    -0.023 A 
ATOM     18  C2' MOL A   1      43.559  -4.185  27.179  1.00  0.00     0.012 A 
ATOM     19  C3' MOL A   1      43.811  -4.060  25.830  1.00  0.00     0.001 A 
ATOM     20  C4' MOL A   1      44.444  -2.946  25.338  1.00  0.00     0.000 A 
ATOM     21  C5' MOL A   1      44.834  -1.936  26.208  1.00  0.00     0.001 A 
ATOM     22  C6' MOL A   1      44.574  -2.075  27.569  1.00  0.00     0.012 A 
ENDBRANCH  15  17
BRANCH  16  23
ATOM     23  O6' MOL A   1      43.389  -0.996  29.772  1.00  0.00    -0.359 OA
ATOM     24  H13 MOL A   1      43.167  -1.069  28.851  1.00  0.00     0.218 HD
ENDBRANCH  16  23
ENDBRANCH   9  11
BRANCH   1  25
ATOM     25  C7  MOL A   1      40.939   2.659  36.152  1.00  0.00     0.102 C 
ATOM     26  N2  MOL A   1      39.659   2.831  35.886  1.00  0.00    -0.385 N 
ATOM     27  H6  MOL A   1      39.243   2.391  35.053  1.00  0.00     0.157 HD
ATOM     28  H7  MOL A   1      39.075   3.405  36.511  1.00  0.00     0.157 HD
BRANCH  25  29
ATOM     29  N1  MOL A   1      41.464   3.222  37.216  1.00  0.00    -0.385 N 
ATOM     30  H4  MOL A   1      40.894   3.355  38.064  1.00  0.00     0.157 HD
ATOM     31  H5  MOL A   1      42.447   3.531  37.202  1.00  0.00     0.157 HD
ENDBRANCH  25  29
ENDBRANCH   1  25
TORSDOF 5
ENDMDL
