MODEL 1
REMARK VINA RESULT:      -6.6      0.371      0.976
REMARK  2 active torsions:
REMARK  status: ('A' for Active; 'I' for Inactive)
REMARK    1  A    between atoms: C0_1  and  C1_2 
REMARK    2  A    between atoms: C0_1  and  N1_3 
ROOT
ATOM      1  C1  ESI A   1       8.539   0.623  25.329  1.00  0.00     0.049 A 
ATOM      2  S2  ESI A   1       9.287   1.140  23.820  1.00  0.00    -0.086 SA
ATOM      3  C3  ESI A   1       9.174   2.828  24.177  1.00  0.00     0.017 A 
ATOM      4  C4  ESI A   1       8.574   2.954  25.422  1.00  0.00    -0.001 A 
ATOM      5  C5  ESI A   1       8.236   1.775  26.027  1.00  0.00     0.036 A 
ATOM      6  C6  ESI A   1       9.562   3.922  23.438  1.00  0.00     0.020 A 
ATOM      7  C7  ESI A   1       9.349   5.184  23.968  1.00  0.00     0.003 A 
ATOM      8  C8  ESI A   1       8.760   5.327  25.212  1.00  0.00     0.019 A 
ATOM      9  C9  ESI A   1       8.370   4.228  25.955  1.00  0.00     0.018 A 
ATOM     10  I9  ESI A   1       7.573   4.641  27.777  1.00  0.00    -0.044 I 
ENDROOT
BRANCH   1  11
ATOM     11  C0  ESI A   1       8.359  -0.703  25.664  1.00  0.00     0.109 C 
ATOM     12  N2  ESI A   1       7.938  -0.928  26.874  1.00  0.00    -0.385 N 
ATOM     13  H3  ESI A   1       7.759  -0.139  27.512  1.00  0.00     0.157 HD
ATOM     14  H4  ESI A   1       7.782  -1.894  27.195  1.00  0.00     0.157 HD
BRANCH  11  15
ATOM     15  N1  ESI A   1       8.616  -1.620  24.778  1.00  0.00    -0.385 N 
ATOM     16  H1  ESI A   1       7.975  -1.762  23.983  1.00  0.00     0.157 HD
ATOM     17  H2  ESI A   1       9.459  -2.203  24.870  1.00  0.00     0.157 HD
ENDBRANCH  11  15
ENDBRANCH   1  11
TORSDOF 2
ENDMDL
MODEL 2
REMARK VINA RESULT:      -5.4      1.511      1.973
REMARK  2 active torsions:
REMARK  status: ('A' for Active; 'I' for Inactive)
REMARK    1  A    between atoms: C0_1  and  C1_2 
REMARK    2  A    between atoms: C0_1  and  N1_3 
ROOT
ATOM      1  C1  ESI A   1       9.045   2.215  24.908  1.00  0.00     0.049 A 
ATOM      2  S2  ESI A   1      10.054   2.985  23.685  1.00  0.00    -0.086 SA
ATOM      3  C3  ESI A   1       9.651   4.597  24.165  1.00  0.00     0.017 A 
ATOM      4  C4  ESI A   1       8.768   4.509  25.231  1.00  0.00    -0.001 A 
ATOM      5  C5  ESI A   1       8.448   3.237  25.618  1.00  0.00     0.036 A 
ATOM      6  C6  ESI A   1      10.061   5.806  23.653  1.00  0.00     0.020 A 
ATOM      7  C7  ESI A   1       9.576   6.967  24.234  1.00  0.00     0.003 A 
ATOM      8  C8  ESI A   1       8.701   6.896  25.303  1.00  0.00     0.019 A 
ATOM      9  C9  ESI A   1       8.289   5.681  25.819  1.00  0.00     0.018 A 
ATOM     10  I9  ESI A   1       7.045   5.786  27.421  1.00  0.00    -0.044 I 
ENDROOT
BRANCH   1  11
ATOM     11  C0  ESI A   1       8.959   0.846  25.059  1.00  0.00     0.109 C 
ATOM     12  N2  ESI A   1       9.215   0.145  23.993  1.00  0.00    -0.385 N 
ATOM     13  H3  ESI A   1       9.464   0.617  23.112  1.00  0.00     0.157 HD
ATOM     14  H4  ESI A   1       9.168  -0.884  24.030  1.00  0.00     0.157 HD
BRANCH  11  15
ATOM     15  N1  ESI A   1       8.636   0.356  26.219  1.00  0.00    -0.385 N 
ATOM     16  H1  ESI A   1       9.297   0.420  27.007  1.00  0.00     0.157 HD
ATOM     17  H2  ESI A   1       7.720  -0.096  26.350  1.00  0.00     0.157 HD
ENDBRANCH  11  15
ENDBRANCH   1  11
TORSDOF 2
ENDMDL
MODEL 3
REMARK VINA RESULT:      -4.4      2.878      3.672
REMARK  2 active torsions:
REMARK  status: ('A' for Active; 'I' for Inactive)
REMARK    1  A    between atoms: C0_1  and  C1_2 
REMARK    2  A    between atoms: C0_1  and  N1_3 
ROOT
ATOM      1  C1  ESI A   1       8.406   2.749  25.867  1.00  0.00     0.049 A 
ATOM      2  S2  ESI A   1       8.333   3.319  27.532  1.00  0.00    -0.086 SA
ATOM      3  C3  ESI A   1       7.761   4.897  27.117  1.00  0.00     0.017 A 
ATOM      4  C4  ESI A   1       7.642   4.950  25.735  1.00  0.00    -0.001 A 
ATOM      5  C5  ESI A   1       7.991   3.803  25.077  1.00  0.00     0.036 A 
ATOM      6  C6  ESI A   1       7.458   5.973  27.918  1.00  0.00     0.020 A 
ATOM      7  C7  ESI A   1       7.014   7.140  27.316  1.00  0.00     0.003 A 
ATOM      8  C8  ESI A   1       6.882   7.206  25.940  1.00  0.00     0.019 A 
ATOM      9  C9  ESI A   1       7.186   6.124  25.134  1.00  0.00     0.018 A 
ATOM     10  I9  ESI A   1       6.879   6.400  23.146  1.00  0.00    -0.044 I 
ENDROOT
BRANCH   1  11
ATOM     11  C0  ESI A   1       8.793   1.469  25.526  1.00  0.00     0.109 C 
ATOM     12  N2  ESI A   1       9.432   1.355  24.399  1.00  0.00    -0.385 N 
ATOM     13  H3  ESI A   1       9.620   2.190  23.826  1.00  0.00     0.157 HD
ATOM     14  H4  ESI A   1       9.751   0.429  24.079  1.00  0.00     0.157 HD
BRANCH  11  15
ATOM     15  N1  ESI A   1       8.503   0.486  26.327  1.00  0.00    -0.385 N 
ATOM     16  H1  ESI A   1       8.691  -0.485  26.039  1.00  0.00     0.157 HD
ATOM     17  H2  ESI A   1       8.085   0.678  27.248  1.00  0.00     0.157 HD
ENDBRANCH  11  15
ENDBRANCH   1  11
TORSDOF 2
ENDMDL
MODEL 4
REMARK VINA RESULT:      -3.8      2.784      3.693
REMARK  2 active torsions:
REMARK  status: ('A' for Active; 'I' for Inactive)
REMARK    1  A    between atoms: C0_1  and  C1_2 
REMARK    2  A    between atoms: C0_1  and  N1_3 
ROOT
ATOM      1  C1  ESI A   1       9.001   4.055  24.823  1.00  0.00     0.049 A 
ATOM      2  S2  ESI A   1      10.115   4.373  23.495  1.00  0.00    -0.086 SA
ATOM      3  C3  ESI A   1      10.236   6.068  23.816  1.00  0.00     0.017 A 
ATOM      4  C4  ESI A   1       9.434   6.346  24.913  1.00  0.00    -0.001 A 
ATOM      5  C5  ESI A   1       8.777   5.268  25.441  1.00  0.00     0.036 A 
ATOM      6  C6  ESI A   1      10.953   7.047  23.167  1.00  0.00     0.020 A 
ATOM      7  C7  ESI A   1      10.868   8.347  23.638  1.00  0.00     0.003 A 
ATOM      8  C8  ESI A   1      10.079   8.640  24.736  1.00  0.00     0.019 A 
ATOM      9  C9  ESI A   1       9.359   7.656  25.389  1.00  0.00     0.018 A 
ATOM     10  I9  ESI A   1       8.302   8.273  27.010  1.00  0.00    -0.044 I 
ENDROOT
BRANCH   1  11
ATOM     11  C0  ESI A   1       8.525   2.795  25.119  1.00  0.00     0.109 C 
ATOM     12  N2  ESI A   1       8.956   1.835  24.353  1.00  0.00    -0.385 N 
ATOM     13  H3  ESI A   1       9.612   2.042  23.587  1.00  0.00     0.157 HD
ATOM     14  H4  ESI A   1       8.641   0.867  24.514  1.00  0.00     0.157 HD
BRANCH  11  15
ATOM     15  N1  ESI A   1       7.698   2.647  26.112  1.00  0.00    -0.385 N 
ATOM     16  H1  ESI A   1       6.947   3.336  26.264  1.00  0.00     0.157 HD
ATOM     17  H2  ESI A   1       7.793   1.841  26.746  1.00  0.00     0.157 HD
ENDBRANCH  11  15
ENDBRANCH   1  11
TORSDOF 2
ENDMDL
MODEL 5
REMARK VINA RESULT:      -3.6      5.306      6.062
REMARK  2 active torsions:
REMARK  status: ('A' for Active; 'I' for Inactive)
REMARK    1  A    between atoms: C0_1  and  C1_2 
REMARK    2  A    between atoms: C0_1  and  N1_3 
ROOT
ATOM      1  C1  ESI A   1       6.765   5.467  25.423  1.00  0.00     0.049 A 
ATOM      2  S2  ESI A   1       6.613   6.359  23.911  1.00  0.00    -0.086 SA
ATOM      3  C3  ESI A   1       5.097   7.080  24.325  1.00  0.00     0.017 A 
ATOM      4  C4  ESI A   1       4.747   6.628  25.589  1.00  0.00    -0.001 A 
ATOM      5  C5  ESI A   1       5.640   5.766  26.165  1.00  0.00     0.036 A 
ATOM      6  C6  ESI A   1       4.298   7.944  23.611  1.00  0.00     0.020 A 
ATOM      7  C7  ESI A   1       3.113   8.374  24.186  1.00  0.00     0.003 A 
ATOM      8  C8  ESI A   1       2.754   7.938  25.449  1.00  0.00     0.019 A 
ATOM      9  C9  ESI A   1       3.557   7.071  26.168  1.00  0.00     0.018 A 
ATOM     10  I9  ESI A   1       2.885   6.588  28.022  1.00  0.00    -0.044 I 
ENDROOT
BRANCH   1  11
ATOM     11  C0  ESI A   1       7.851   4.670  25.720  1.00  0.00     0.109 C 
ATOM     12  N2  ESI A   1       8.900   4.845  24.970  1.00  0.00    -0.385 N 
ATOM     13  H3  ESI A   1       8.883   5.545  24.215  1.00  0.00     0.157 HD
ATOM     14  H4  ESI A   1       9.749   4.284  25.133  1.00  0.00     0.157 HD
BRANCH  11  15
ATOM     15  N1  ESI A   1       7.763   3.817  26.698  1.00  0.00    -0.385 N 
ATOM     16  H1  ESI A   1       8.411   3.880  27.496  1.00  0.00     0.157 HD
ATOM     17  H2  ESI A   1       7.044   3.080  26.675  1.00  0.00     0.157 HD
ENDBRANCH  11  15
ENDBRANCH   1  11
TORSDOF 2
ENDMDL
