REMARK  13 active torsions:
REMARK  status: ('A' for Active; 'I' for Inactive)
REMARK    1  A    between atoms: N_1  and  CA_2 
REMARK    2  A    between atoms: CA_2  and  C_3 
REMARK    3  A    between atoms: CA_2  and  CB_5 
REMARK       I    between atoms: C_3  and  N_10 
REMARK    4  A    between atoms: CB_5  and  CG_6 
REMARK    5  A    between atoms: CG_6  and  CD_7 
REMARK    6  A    between atoms: N_10  and  CA_11 
REMARK    7  A    between atoms: CA_11  and  C_12 
REMARK    8  A    between atoms: CA_11  and  CB_14 
REMARK       I    between atoms: C_12  and  N_18 
REMARK    9  A    between atoms: CB_14  and  CG_15 
REMARK   10  A    between atoms: N_18  and  CA_19 
REMARK   11  A    between atoms: CA_19  and  C_20 
REMARK   12  A    between atoms: CA_19  and  CB_22 
REMARK   13  A    between atoms: CB_22  and  CG_23 
ROOT
ATOM      1  CA  MOL A   1       9.258  26.072   6.560  1.00  0.00     0.186 C 
ENDROOT
BRANCH   1   2
ATOM      2  N   MOL A   1       7.873  25.856   6.163  1.00  0.00    -0.345 N 
ATOM      3  C   MOL A   1       7.174  26.772   5.504  1.00  0.00     0.249 C 
ATOM      4  O   MOL A   1       7.624  27.887   5.218  1.00  0.00    -0.271 OA
ATOM      5  H9  MOL A   1       7.434  24.988   6.395  1.00  0.00     0.163 HD
BRANCH   3   6
ATOM      6  CA  MOL A   1       5.733  26.394   5.165  1.00  0.00     0.275 C 
BRANCH   6   7
ATOM      7  N   MOL A   1       4.841  27.576   5.310  1.00  0.00    -0.066 N 
ATOM      8  H1  MOL A   1       3.895  27.313   5.084  1.00  0.00     0.275 HD
ATOM      9  H2  MOL A   1       5.146  28.305   4.684  1.00  0.00     0.275 HD
ATOM     10  H3  MOL A   1       4.878  27.911   6.260  1.00  0.00     0.275 HD
ENDBRANCH   6   7
BRANCH   6  11
ATOM     11  CB  MOL A   1       5.638  25.818   3.750  1.00  0.00     0.053 C 
BRANCH  11  12
ATOM     12  CG  MOL A   1       5.827  26.846   2.652  1.00  0.00     0.115 C 
BRANCH  12  13
ATOM     13  CD  MOL A   1       5.625  26.275   1.262  1.00  0.00     0.172 C 
ATOM     14  OE1 MOL A   1       4.663  25.497   1.065  1.00  0.00    -0.648 OA
ATOM     15  OE2 MOL A   1       6.425  26.620   0.363  1.00  0.00    -0.648 OA
ENDBRANCH  12  13
ENDBRANCH  11  12
ENDBRANCH   6  11
ENDBRANCH   3   6
ENDBRANCH   1   2
BRANCH   1  16
ATOM     16  C   MOL A   1      10.101  24.918   6.047  1.00  0.00     0.241 C 
ATOM     17  O   MOL A   1      10.182  23.864   6.682  1.00  0.00    -0.271 OA
ATOM     18  N   MOL A   1      10.686  25.115   4.869  1.00  0.00    -0.345 N 
ATOM     19  H13 MOL A   1      10.564  25.995   4.410  1.00  0.00     0.163 HD
BRANCH  18  20
ATOM     20  CA  MOL A   1      11.498  24.093   4.226  1.00  0.00     0.185 C 
BRANCH  20  21
ATOM     21  C   MOL A   1      12.984  24.399   4.268  1.00  0.00     0.196 C 
ATOM     22  OXT MOL A   1      13.334  25.592   4.378  1.00  0.00    -0.646 OA
ATOM     23  O   MOL A   1      13.784  23.442   4.192  1.00  0.00    -0.646 OA
ENDBRANCH  20  21
BRANCH  20  24
ATOM     24  CB  MOL A   1      11.038  23.922   2.785  1.00  0.00     0.040 C 
BRANCH  24  25
ATOM     25  CG  MOL A   1       9.583  23.466   2.770  1.00  0.00    -0.020 C 
ATOM     26  CD2 MOL A   1       9.521  21.955   2.602  1.00  0.00     0.009 C 
ATOM     27  CD1 MOL A   1       8.819  24.197   1.708  1.00  0.00     0.009 C 
ENDBRANCH  24  25
ENDBRANCH  20  24
ENDBRANCH  18  20
ENDBRANCH   1  16
BRANCH   1  28
ATOM     28  CB  MOL A   1       9.346  26.196   8.079  1.00  0.00     0.147 C 
BRANCH  28  29
ATOM     29  CG  MOL A   1       8.649  27.441   8.588  1.00  0.00     0.175 C 
ATOM     30  OD1 MOL A   1       9.270  28.518   8.521  1.00  0.00    -0.648 OA
ATOM     31  OD2 MOL A   1       7.474  27.357   9.012  1.00  0.00    -0.648 OA
ENDBRANCH  28  29
ENDBRANCH   1  28
TORSDOF 13
