MODEL 1
REMARK VINA RESULT:      -0.0     46.310     48.730
REMARK  13 active torsions:
REMARK  status: ('A' for Active; 'I' for Inactive)
REMARK    1  A    between atoms: N_1  and  CA_2 
REMARK    2  A    between atoms: CA_2  and  C_3 
REMARK    3  A    between atoms: CA_2  and  CB_5 
REMARK       I    between atoms: C_3  and  N_10 
REMARK    4  A    between atoms: CB_5  and  CG_6 
REMARK    5  A    between atoms: CG_6  and  CD_7 
REMARK    6  A    between atoms: N_10  and  CA_11 
REMARK    7  A    between atoms: CA_11  and  C_12 
REMARK    8  A    between atoms: CA_11  and  CB_14 
REMARK       I    between atoms: C_12  and  N_18 
REMARK    9  A    between atoms: CB_14  and  CG_15 
REMARK   10  A    between atoms: N_18  and  CA_19 
REMARK   11  A    between atoms: CA_19  and  C_20 
REMARK   12  A    between atoms: CA_19  and  CB_22 
REMARK   13  A    between atoms: CB_22  and  CG_23 
ROOT
ATOM      1  CA  MOL A   1      18.938  14.696  51.451  1.00  0.00     0.186 C 
ENDROOT
BRANCH   1   2
ATOM      2  N   MOL A   1      18.069  15.845  51.236  1.00  0.00    -0.345 N 
ATOM      3  C   MOL A   1      18.511  16.976  50.699  1.00  0.00     0.249 C 
ATOM      4  O   MOL A   1      19.693  17.157  50.385  1.00  0.00    -0.271 OA
ATOM      5  H9  MOL A   1      17.108  15.780  51.502  1.00  0.00     0.163 HD
BRANCH   3   6
ATOM      6  CA  MOL A   1      17.476  18.089  50.545  1.00  0.00     0.275 C 
BRANCH   6   7
ATOM      7  N   MOL A   1      16.556  17.785  49.416  1.00  0.00    -0.066 N 
ATOM      8  H1  MOL A   1      15.628  18.109  49.641  1.00  0.00     0.275 HD
ATOM      9  H2  MOL A   1      16.535  16.790  49.258  1.00  0.00     0.275 HD
ATOM     10  H3  MOL A   1      16.880  18.251  48.583  1.00  0.00     0.275 HD
ENDBRANCH   6   7
BRANCH   6  11
ATOM     11  CB  MOL A   1      16.689  18.287  51.842  1.00  0.00     0.053 C 
BRANCH  11  12
ATOM     12  CG  MOL A   1      15.205  18.005  51.713  1.00  0.00     0.115 C 
BRANCH  12  13
ATOM     13  CD  MOL A   1      14.827  16.601  52.144  1.00  0.00     0.172 C 
ATOM     14  OE1 MOL A   1      14.311  16.437  53.274  1.00  0.00    -0.648 OA
ATOM     15  OE2 MOL A   1      15.036  15.664  51.341  1.00  0.00    -0.648 OA
ENDBRANCH  12  13
ENDBRANCH  11  12
ENDBRANCH   6  11
ENDBRANCH   3   6
ENDBRANCH   1   2
BRANCH   1  16
ATOM     16  C   MOL A   1      18.353  13.496  50.727  1.00  0.00     0.241 C 
ATOM     17  O   MOL A   1      19.075  12.566  50.361  1.00  0.00    -0.271 OA
ATOM     18  N   MOL A   1      17.033  13.510  50.570  1.00  0.00    -0.345 N 
ATOM     19  H13 MOL A   1      16.514  14.297  50.904  1.00  0.00     0.163 HD
BRANCH  18  20
ATOM     20  CA  MOL A   1      16.317  12.418  49.927  1.00  0.00     0.185 C 
BRANCH  20  21
ATOM     21  C   MOL A   1      15.398  12.882  48.813  1.00  0.00     0.196 C 
ATOM     22  OXT MOL A   1      14.552  12.075  48.375  1.00  0.00    -0.646 OA
ATOM     23  O   MOL A   1      15.530  14.050  48.389  1.00  0.00    -0.646 OA
ENDBRANCH  20  21
BRANCH  20  24
ATOM     24  CB  MOL A   1      15.523  11.653  50.978  1.00  0.00     0.040 C 
BRANCH  24  25
ATOM     25  CG  MOL A   1      16.311  10.420  51.407  1.00  0.00    -0.020 C 
ATOM     26  CD2 MOL A   1      15.415   9.192  51.345  1.00  0.00     0.009 C 
ATOM     27  CD1 MOL A   1      16.908  10.631  52.766  1.00  0.00     0.009 C 
ENDBRANCH  24  25
ENDBRANCH  20  24
ENDBRANCH  18  20
ENDBRANCH   1  16
BRANCH   1  28
ATOM     28  CB  MOL A   1      19.080  14.430  52.948  1.00  0.00     0.147 C 
BRANCH  28  29
ATOM     29  CG  MOL A   1      17.851  14.862  53.721  1.00  0.00     0.175 C 
ATOM     30  OD1 MOL A   1      17.890  15.966  54.296  1.00  0.00    -0.648 OA
ATOM     31  OD2 MOL A   1      16.836  14.130  53.720  1.00  0.00    -0.648 OA
ENDBRANCH  28  29
ENDBRANCH   1  28
TORSDOF 13
ENDMDL
MODEL 2
REMARK VINA RESULT:      -0.0     44.321     47.139
REMARK  13 active torsions:
REMARK  status: ('A' for Active; 'I' for Inactive)
REMARK    1  A    between atoms: N_1  and  CA_2 
REMARK    2  A    between atoms: CA_2  and  C_3 
REMARK    3  A    between atoms: CA_2  and  CB_5 
REMARK       I    between atoms: C_3  and  N_10 
REMARK    4  A    between atoms: CB_5  and  CG_6 
REMARK    5  A    between atoms: CG_6  and  CD_7 
REMARK    6  A    between atoms: N_10  and  CA_11 
REMARK    7  A    between atoms: CA_11  and  C_12 
REMARK    8  A    between atoms: CA_11  and  CB_14 
REMARK       I    between atoms: C_12  and  N_18 
REMARK    9  A    between atoms: CB_14  and  CG_15 
REMARK   10  A    between atoms: N_18  and  CA_19 
REMARK   11  A    between atoms: CA_19  and  C_20 
REMARK   12  A    between atoms: CA_19  and  CB_22 
REMARK   13  A    between atoms: CB_22  and  CG_23 
ROOT
ATOM      1  CA  MOL A   1      15.168  14.629  51.729  1.00  0.00     0.186 C 
ENDROOT
BRANCH   1   2
ATOM      2  N   MOL A   1      16.160  15.398  50.989  1.00  0.00    -0.345 N 
ATOM      3  C   MOL A   1      17.430  15.019  50.904  1.00  0.00     0.249 C 
ATOM      4  O   MOL A   1      17.876  14.020  51.477  1.00  0.00    -0.271 OA
ATOM      5  H9  MOL A   1      15.875  16.239  50.531  1.00  0.00     0.163 HD
BRANCH   3   6
ATOM      6  CA  MOL A   1      18.345  15.937  50.095  1.00  0.00     0.275 C 
BRANCH   6   7
ATOM      7  N   MOL A   1      18.085  15.774  48.639  1.00  0.00    -0.066 N 
ATOM      8  H1  MOL A   1      17.112  15.558  48.494  1.00  0.00     0.275 HD
ATOM      9  H2  MOL A   1      18.654  15.023  48.279  1.00  0.00     0.275 HD
ATOM     10  H3  MOL A   1      18.314  16.630  48.158  1.00  0.00     0.275 HD
ENDBRANCH   6   7
BRANCH   6  11
ATOM     11  CB  MOL A   1      18.162  17.398  50.514  1.00  0.00     0.053 C 
BRANCH  11  12
ATOM     12  CG  MOL A   1      17.642  18.296  49.409  1.00  0.00     0.115 C 
BRANCH  12  13
ATOM     13  CD  MOL A   1      16.139  18.490  49.458  1.00  0.00     0.172 C 
ATOM     14  OE1 MOL A   1      15.685  19.556  49.935  1.00  0.00    -0.648 OA
ATOM     15  OE2 MOL A   1      15.414  17.576  49.004  1.00  0.00    -0.648 OA
ENDBRANCH  12  13
ENDBRANCH  11  12
ENDBRANCH   6  11
ENDBRANCH   3   6
ENDBRANCH   1   2
BRANCH   1  16
ATOM     16  C   MOL A   1      14.031  14.264  50.792  1.00  0.00     0.241 C 
ATOM     17  O   MOL A   1      13.328  13.274  51.007  1.00  0.00    -0.271 OA
ATOM     18  N   MOL A   1      13.832  15.103  49.779  1.00  0.00    -0.345 N 
ATOM     19  H13 MOL A   1      14.439  15.891  49.678  1.00  0.00     0.163 HD
BRANCH  18  20
ATOM     20  CA  MOL A   1      12.760  14.913  48.814  1.00  0.00     0.185 C 
BRANCH  20  21
ATOM     21  C   MOL A   1      13.240  14.953  47.375  1.00  0.00     0.196 C 
ATOM     22  OXT MOL A   1      12.384  15.061  46.474  1.00  0.00    -0.646 OA
ATOM     23  O   MOL A   1      14.470  14.878  47.163  1.00  0.00    -0.646 OA
ENDBRANCH  20  21
BRANCH  20  24
ATOM     24  CB  MOL A   1      11.689  15.971  49.040  1.00  0.00     0.040 C 
BRANCH  24  25
ATOM     25  CG  MOL A   1      10.564  15.379  49.881  1.00  0.00    -0.020 C 
ATOM     26  CD2 MOL A   1       9.224  15.662  49.218  1.00  0.00     0.009 C 
ATOM     27  CD1 MOL A   1      10.634  15.899  51.285  1.00  0.00     0.009 C 
ENDBRANCH  24  25
ENDBRANCH  20  24
ENDBRANCH  18  20
ENDBRANCH   1  16
BRANCH   1  28
ATOM     28  CB  MOL A   1      14.671  15.441  52.922  1.00  0.00     0.147 C 
BRANCH  28  29
ATOM     29  CG  MOL A   1      14.728  16.931  52.657  1.00  0.00     0.175 C 
ATOM     30  OD1 MOL A   1      15.699  17.562  53.114  1.00  0.00    -0.648 OA
ATOM     31  OD2 MOL A   1      13.834  17.466  51.961  1.00  0.00    -0.648 OA
ENDBRANCH  28  29
ENDBRANCH   1  28
TORSDOF 13
ENDMDL
MODEL 3
REMARK VINA RESULT:      -0.0     45.756     48.105
REMARK  13 active torsions:
REMARK  status: ('A' for Active; 'I' for Inactive)
REMARK    1  A    between atoms: N_1  and  CA_2 
REMARK    2  A    between atoms: CA_2  and  C_3 
REMARK    3  A    between atoms: CA_2  and  CB_5 
REMARK       I    between atoms: C_3  and  N_10 
REMARK    4  A    between atoms: CB_5  and  CG_6 
REMARK    5  A    between atoms: CG_6  and  CD_7 
REMARK    6  A    between atoms: N_10  and  CA_11 
REMARK    7  A    between atoms: CA_11  and  C_12 
REMARK    8  A    between atoms: CA_11  and  CB_14 
REMARK       I    between atoms: C_12  and  N_18 
REMARK    9  A    between atoms: CB_14  and  CG_15 
REMARK   10  A    between atoms: N_18  and  CA_19 
REMARK   11  A    between atoms: CA_19  and  C_20 
REMARK   12  A    between atoms: CA_19  and  CB_22 
REMARK   13  A    between atoms: CB_22  and  CG_23 
ROOT
ATOM      1  CA  MOL A   1      16.868  14.365  51.983  1.00  0.00     0.186 C 
ENDROOT
BRANCH   1   2
ATOM      2  N   MOL A   1      16.449  15.565  51.271  1.00  0.00    -0.345 N 
ATOM      3  C   MOL A   1      17.316  16.484  50.862  1.00  0.00     0.249 C 
ATOM      4  O   MOL A   1      18.528  16.417  51.090  1.00  0.00    -0.271 OA
ATOM      5  H9  MOL A   1      15.477  15.701  51.084  1.00  0.00     0.163 HD
BRANCH   3   6
ATOM      6  CA  MOL A   1      16.717  17.686  50.133  1.00  0.00     0.275 C 
BRANCH   6   7
ATOM      7  N   MOL A   1      16.306  17.304  48.755  1.00  0.00    -0.066 N 
ATOM      8  H1  MOL A   1      15.317  17.456  48.645  1.00  0.00     0.275 HD
ATOM      9  H2  MOL A   1      16.515  16.330  48.602  1.00  0.00     0.275 HD
ATOM     10  H3  MOL A   1      16.809  17.866  48.086  1.00  0.00     0.275 HD
ENDBRANCH   6   7
BRANCH   6  11
ATOM     11  CB  MOL A   1      15.529  18.259  50.910  1.00  0.00     0.053 C 
BRANCH  11  12
ATOM     12  CG  MOL A   1      14.211  18.185  50.164  1.00  0.00     0.115 C 
BRANCH  12  13
ATOM     13  CD  MOL A   1      13.384  16.971  50.540  1.00  0.00     0.172 C 
ATOM     14  OE1 MOL A   1      12.423  17.118  51.329  1.00  0.00    -0.648 OA
ATOM     15  OE2 MOL A   1      13.691  15.870  50.029  1.00  0.00    -0.648 OA
ENDBRANCH  12  13
ENDBRANCH  11  12
ENDBRANCH   6  11
ENDBRANCH   3   6
ENDBRANCH   1   2
BRANCH   1  16
ATOM     16  C   MOL A   1      16.383  13.146  51.217  1.00  0.00     0.241 C 
ATOM     17  O   MOL A   1      16.962  12.063  51.322  1.00  0.00    -0.271 OA
ATOM     18  N   MOL A   1      15.287  13.328  50.486  1.00  0.00    -0.345 N 
ATOM     19  H13 MOL A   1      14.868  14.235  50.460  1.00  0.00     0.163 HD
BRANCH  18  20
ATOM     20  CA  MOL A   1      14.678  12.250  49.722  1.00  0.00     0.185 C 
BRANCH  20  21
ATOM     21  C   MOL A   1      14.434  12.613  48.268  1.00  0.00     0.196 C 
ATOM     22  OXT MOL A   1      13.690  11.871  47.595  1.00  0.00    -0.646 OA
ATOM     23  O   MOL A   1      14.990  13.637  47.817  1.00  0.00    -0.646 OA
ENDBRANCH  20  21
BRANCH  20  24
ATOM     24  CB  MOL A   1      13.370  11.842  50.387  1.00  0.00     0.040 C 
BRANCH  24  25
ATOM     25  CG  MOL A   1      13.609  10.617  51.262  1.00  0.00    -0.020 C 
ATOM     26  CD2 MOL A   1      12.570   9.552  50.948  1.00  0.00     0.009 C 
ATOM     27  CD1 MOL A   1      13.619  11.005  52.710  1.00  0.00     0.009 C 
ENDBRANCH  24  25
ENDBRANCH  20  24
ENDBRANCH  18  20
ENDBRANCH   1  16
BRANCH   1  28
ATOM     28  CB  MOL A   1      16.312  14.389  53.405  1.00  0.00     0.147 C 
BRANCH  28  29
ATOM     29  CG  MOL A   1      15.005  15.149  53.491  1.00  0.00     0.175 C 
ATOM     30  OD1 MOL A   1      15.048  16.327  53.891  1.00  0.00    -0.648 OA
ATOM     31  OD2 MOL A   1      13.946  14.594  53.120  1.00  0.00    -0.648 OA
ENDBRANCH  28  29
ENDBRANCH   1  28
TORSDOF 13
ENDMDL
MODEL 4
REMARK VINA RESULT:      -0.0     46.045     48.890
REMARK  13 active torsions:
REMARK  status: ('A' for Active; 'I' for Inactive)
REMARK    1  A    between atoms: N_1  and  CA_2 
REMARK    2  A    between atoms: CA_2  and  C_3 
REMARK    3  A    between atoms: CA_2  and  CB_5 
REMARK       I    between atoms: C_3  and  N_10 
REMARK    4  A    between atoms: CB_5  and  CG_6 
REMARK    5  A    between atoms: CG_6  and  CD_7 
REMARK    6  A    between atoms: N_10  and  CA_11 
REMARK    7  A    between atoms: CA_11  and  C_12 
REMARK    8  A    between atoms: CA_11  and  CB_14 
REMARK       I    between atoms: C_12  and  N_18 
REMARK    9  A    between atoms: CB_14  and  CG_15 
REMARK   10  A    between atoms: N_18  and  CA_19 
REMARK   11  A    between atoms: CA_19  and  C_20 
REMARK   12  A    between atoms: CA_19  and  CB_22 
REMARK   13  A    between atoms: CB_22  and  CG_23 
ROOT
ATOM      1  CA  MOL A   1      15.942  15.226  52.189  1.00  0.00     0.186 C 
ENDROOT
BRANCH   1   2
ATOM      2  N   MOL A   1      15.395  16.057  51.125  1.00  0.00    -0.345 N 
ATOM      3  C   MOL A   1      16.008  16.208  49.958  1.00  0.00     0.249 C 
ATOM      4  O   MOL A   1      17.103  15.695  49.700  1.00  0.00    -0.271 OA
ATOM      5  H9  MOL A   1      14.528  16.531  51.280  1.00  0.00     0.163 HD
BRANCH   3   6
ATOM      6  CA  MOL A   1      15.307  17.116  48.949  1.00  0.00     0.275 C 
BRANCH   6   7
ATOM      7  N   MOL A   1      14.126  16.425  48.364  1.00  0.00    -0.066 N 
ATOM      8  H1  MOL A   1      13.436  17.108  48.095  1.00  0.00     0.275 HD
ATOM      9  H2  MOL A   1      13.731  15.799  49.048  1.00  0.00     0.275 HD
ATOM     10  H3  MOL A   1      14.412  15.900  47.552  1.00  0.00     0.275 HD
ENDBRANCH   6   7
BRANCH   6  11
ATOM     11  CB  MOL A   1      14.889  18.436  49.602  1.00  0.00     0.053 C 
BRANCH  11  12
ATOM     12  CG  MOL A   1      13.391  18.668  49.621  1.00  0.00     0.115 C 
BRANCH  12  13
ATOM     13  CD  MOL A   1      12.741  18.254  50.927  1.00  0.00     0.172 C 
ATOM     14  OE1 MOL A   1      12.444  19.143  51.759  1.00  0.00    -0.648 OA
ATOM     15  OE2 MOL A   1      12.516  17.037  51.112  1.00  0.00    -0.648 OA
ENDBRANCH  12  13
ENDBRANCH  11  12
ENDBRANCH   6  11
ENDBRANCH   3   6
ENDBRANCH   1   2
BRANCH   1  16
ATOM     16  C   MOL A   1      14.915  14.172  52.565  1.00  0.00     0.241 C 
ATOM     17  O   MOL A   1      15.265  13.102  53.070  1.00  0.00    -0.271 OA
ATOM     18  N   MOL A   1      13.646  14.508  52.356  1.00  0.00    -0.345 N 
ATOM     19  H13 MOL A   1      13.442  15.399  51.951  1.00  0.00     0.163 HD
BRANCH  18  20
ATOM     20  CA  MOL A   1      12.543  13.621  52.695  1.00  0.00     0.185 C 
BRANCH  20  21
ATOM     21  C   MOL A   1      11.576  13.406  51.546  1.00  0.00     0.196 C 
ATOM     22  OXT MOL A   1      10.471  12.883  51.799  1.00  0.00    -0.646 OA
ATOM     23  O   MOL A   1      11.932  13.763  50.402  1.00  0.00    -0.646 OA
ENDBRANCH  20  21
BRANCH  20  24
ATOM     24  CB  MOL A   1      11.805  14.181  53.903  1.00  0.00     0.040 C 
BRANCH  24  25
ATOM     25  CG  MOL A   1      12.297  13.481  55.165  1.00  0.00    -0.020 C 
ATOM     26  CD2 MOL A   1      11.107  12.991  55.977  1.00  0.00     0.009 C 
ATOM     27  CD1 MOL A   1      13.196  14.389  55.948  1.00  0.00     0.009 C 
ENDBRANCH  24  25
ENDBRANCH  20  24
ENDBRANCH  18  20
ENDBRANCH   1  16
BRANCH   1  28
ATOM     28  CB  MOL A   1      16.311  16.097  53.387  1.00  0.00     0.147 C 
BRANCH  28  29
ATOM     29  CG  MOL A   1      15.434  17.328  53.486  1.00  0.00     0.175 C 
ATOM     30  OD1 MOL A   1      15.890  18.399  53.044  1.00  0.00    -0.648 OA
ATOM     31  OD2 MOL A   1      14.280  17.222  53.959  1.00  0.00    -0.648 OA
ENDBRANCH  28  29
ENDBRANCH   1  28
TORSDOF 13
ENDMDL
MODEL 5
REMARK VINA RESULT:      -0.0     45.549     48.112
REMARK  13 active torsions:
REMARK  status: ('A' for Active; 'I' for Inactive)
REMARK    1  A    between atoms: N_1  and  CA_2 
REMARK    2  A    between atoms: CA_2  and  C_3 
REMARK    3  A    between atoms: CA_2  and  CB_5 
REMARK       I    between atoms: C_3  and  N_10 
REMARK    4  A    between atoms: CB_5  and  CG_6 
REMARK    5  A    between atoms: CG_6  and  CD_7 
REMARK    6  A    between atoms: N_10  and  CA_11 
REMARK    7  A    between atoms: CA_11  and  C_12 
REMARK    8  A    between atoms: CA_11  and  CB_14 
REMARK       I    between atoms: C_12  and  N_18 
REMARK    9  A    between atoms: CB_14  and  CG_15 
REMARK   10  A    between atoms: N_18  and  CA_19 
REMARK   11  A    between atoms: CA_19  and  C_20 
REMARK   12  A    between atoms: CA_19  and  CB_22 
REMARK   13  A    between atoms: CB_22  and  CG_23 
ROOT
ATOM      1  CA  MOL A   1      17.430  16.455  51.862  1.00  0.00     0.186 C 
ENDROOT
BRANCH   1   2
ATOM      2  N   MOL A   1      17.542  17.760  51.225  1.00  0.00    -0.345 N 
ATOM      3  C   MOL A   1      18.607  18.114  50.516  1.00  0.00     0.249 C 
ATOM      4  O   MOL A   1      19.598  17.388  50.381  1.00  0.00    -0.271 OA
ATOM      5  H9  MOL A   1      16.790  18.412  51.324  1.00  0.00     0.163 HD
BRANCH   3   6
ATOM      6  CA  MOL A   1      18.572  19.519  49.917  1.00  0.00     0.275 C 
BRANCH   6   7
ATOM      7  N   MOL A   1      17.648  19.560  48.751  1.00  0.00    -0.066 N 
ATOM      8  H1  MOL A   1      17.224  20.472  48.690  1.00  0.00     0.275 HD
ATOM      9  H2  MOL A   1      16.930  18.862  48.867  1.00  0.00     0.275 HD
ATOM     10  H3  MOL A   1      18.165  19.374  47.905  1.00  0.00     0.275 HD
ENDBRANCH   6   7
BRANCH   6  11
ATOM     11  CB  MOL A   1      18.158  20.551  50.968  1.00  0.00     0.053 C 
BRANCH  11  12
ATOM     12  CG  MOL A   1      16.860  21.268  50.652  1.00  0.00     0.115 C 
BRANCH  12  13
ATOM     13  CD  MOL A   1      15.658  20.649  51.336  1.00  0.00     0.172 C 
ATOM     14  OE1 MOL A   1      15.199  21.202  52.363  1.00  0.00    -0.648 OA
ATOM     15  OE2 MOL A   1      15.163  19.614  50.834  1.00  0.00    -0.648 OA
ENDBRANCH  12  13
ENDBRANCH  11  12
ENDBRANCH   6  11
ENDBRANCH   3   6
ENDBRANCH   1   2
BRANCH   1  16
ATOM     16  C   MOL A   1      16.172  15.769  51.358  1.00  0.00     0.241 C 
ATOM     17  O   MOL A   1      16.079  14.540  51.361  1.00  0.00    -0.271 OA
ATOM     18  N   MOL A   1      15.192  16.581  50.972  1.00  0.00    -0.345 N 
ATOM     19  H13 MOL A   1      15.341  17.569  51.009  1.00  0.00     0.163 HD
BRANCH  18  20
ATOM     20  CA  MOL A   1      13.912  16.079  50.498  1.00  0.00     0.185 C 
BRANCH  20  21
ATOM     21  C   MOL A   1      13.501  16.666  49.160  1.00  0.00     0.196 C 
ATOM     22  OXT MOL A   1      12.319  16.510  48.789  1.00  0.00    -0.646 OA
ATOM     23  O   MOL A   1      14.364  17.278  48.496  1.00  0.00    -0.646 OA
ENDBRANCH  20  21
BRANCH  20  24
ATOM     24  CB  MOL A   1      12.844  16.363  51.545  1.00  0.00     0.040 C 
BRANCH  24  25
ATOM     25  CG  MOL A   1      12.623  15.115  52.393  1.00  0.00    -0.020 C 
ATOM     26  CD2 MOL A   1      11.136  14.806  52.473  1.00  0.00     0.009 C 
ATOM     27  CD1 MOL A   1      13.252  15.284  53.743  1.00  0.00     0.009 C 
ENDBRANCH  24  25
ENDBRANCH  20  24
ENDBRANCH  18  20
ENDBRANCH   1  16
BRANCH   1  28
ATOM     28  CB  MOL A   1      17.406  16.622  53.379  1.00  0.00     0.147 C 
BRANCH  28  29
ATOM     29  CG  MOL A   1      16.803  17.947  53.795  1.00  0.00     0.175 C 
ATOM     30  OD1 MOL A   1      17.585  18.872  54.083  1.00  0.00    -0.648 OA
ATOM     31  OD2 MOL A   1      15.558  18.083  53.792  1.00  0.00    -0.648 OA
ENDBRANCH  28  29
ENDBRANCH   1  28
TORSDOF 13
ENDMDL
MODEL 6
REMARK VINA RESULT:      -0.0     48.053     50.342
REMARK  13 active torsions:
REMARK  status: ('A' for Active; 'I' for Inactive)
REMARK    1  A    between atoms: N_1  and  CA_2 
REMARK    2  A    between atoms: CA_2  and  C_3 
REMARK    3  A    between atoms: CA_2  and  CB_5 
REMARK       I    between atoms: C_3  and  N_10 
REMARK    4  A    between atoms: CB_5  and  CG_6 
REMARK    5  A    between atoms: CG_6  and  CD_7 
REMARK    6  A    between atoms: N_10  and  CA_11 
REMARK    7  A    between atoms: CA_11  and  C_12 
REMARK    8  A    between atoms: CA_11  and  CB_14 
REMARK       I    between atoms: C_12  and  N_18 
REMARK    9  A    between atoms: CB_14  and  CG_15 
REMARK   10  A    between atoms: N_18  and  CA_19 
REMARK   11  A    between atoms: CA_19  and  C_20 
REMARK   12  A    between atoms: CA_19  and  CB_22 
REMARK   13  A    between atoms: CB_22  and  CG_23 
ROOT
ATOM      1  CA  MOL A   1      18.600  16.584  54.265  1.00  0.00     0.186 C 
ENDROOT
BRANCH   1   2
ATOM      2  N   MOL A   1      17.775  17.561  53.567  1.00  0.00    -0.345 N 
ATOM      3  C   MOL A   1      18.277  18.682  53.066  1.00  0.00     0.249 C 
ATOM      4  O   MOL A   1      19.464  19.005  53.190  1.00  0.00    -0.271 OA
ATOM      5  H9  MOL A   1      16.797  17.380  53.463  1.00  0.00     0.163 HD
BRANCH   3   6
ATOM      6  CA  MOL A   1      17.280  19.605  52.367  1.00  0.00     0.275 C 
BRANCH   6   7
ATOM      7  N   MOL A   1      16.906  19.050  51.039  1.00  0.00    -0.066 N 
ATOM      8  H1  MOL A   1      17.689  19.126  50.410  1.00  0.00     0.275 HD
ATOM      9  H2  MOL A   1      16.125  19.568  50.667  1.00  0.00     0.275 HD
ATOM     10  H3  MOL A   1      16.649  18.081  51.139  1.00  0.00     0.275 HD
ENDBRANCH   6   7
BRANCH   6  11
ATOM     11  CB  MOL A   1      16.035  19.818  53.232  1.00  0.00     0.053 C 
BRANCH  11  12
ATOM     12  CG  MOL A   1      14.754  19.305  52.605  1.00  0.00     0.115 C 
BRANCH  12  13
ATOM     13  CD  MOL A   1      14.378  17.913  53.076  1.00  0.00     0.172 C 
ATOM     14  OE1 MOL A   1      13.482  17.793  53.943  1.00  0.00    -0.648 OA
ATOM     15  OE2 MOL A   1      14.974  16.939  52.564  1.00  0.00    -0.648 OA
ENDBRANCH  12  13
ENDBRANCH  11  12
ENDBRANCH   6  11
ENDBRANCH   3   6
ENDBRANCH   1   2
BRANCH   1  16
ATOM     16  C   MOL A   1      18.464  15.241  53.570  1.00  0.00     0.241 C 
ATOM     17  O   MOL A   1      19.359  14.396  53.647  1.00  0.00    -0.271 OA
ATOM     18  N   MOL A   1      17.314  15.039  52.933  1.00  0.00    -0.345 N 
ATOM     19  H13 MOL A   1      16.631  15.771  52.925  1.00  0.00     0.163 HD
BRANCH  18  20
ATOM     20  CA  MOL A   1      17.015  13.791  52.247  1.00  0.00     0.185 C 
BRANCH  20  21
ATOM     21  C   MOL A   1      16.561  13.993  50.813  1.00  0.00     0.196 C 
ATOM     22  OXT MOL A   1      16.036  13.026  50.223  1.00  0.00    -0.646 OA
ATOM     23  O   MOL A   1      16.733  15.117  50.294  1.00  0.00    -0.646 OA
ENDBRANCH  20  21
BRANCH  20  24
ATOM     24  CB  MOL A   1      15.955  13.031  53.032  1.00  0.00     0.040 C 
BRANCH  24  25
ATOM     25  CG  MOL A   1      16.631  11.982  53.908  1.00  0.00    -0.020 C 
ATOM     26  CD2 MOL A   1      15.955  10.633  53.707  1.00  0.00     0.009 C 
ATOM     27  CD1 MOL A   1      16.629  12.421  55.341  1.00  0.00     0.009 C 
ENDBRANCH  24  25
ENDBRANCH  20  24
ENDBRANCH  18  20
ENDBRANCH   1  16
BRANCH   1  28
ATOM     28  CB  MOL A   1      18.175  16.500  55.729  1.00  0.00     0.147 C 
BRANCH  28  29
ATOM     29  CG  MOL A   1      16.706  16.823  55.912  1.00  0.00     0.175 C 
ATOM     30  OD1 MOL A   1      16.410  17.973  56.283  1.00  0.00    -0.648 OA
ATOM     31  OD2 MOL A   1      15.848  15.950  55.647  1.00  0.00    -0.648 OA
ENDBRANCH  28  29
ENDBRANCH   1  28
TORSDOF 13
ENDMDL
MODEL 7
REMARK VINA RESULT:       0.0     45.944     48.175
REMARK  13 active torsions:
REMARK  status: ('A' for Active; 'I' for Inactive)
REMARK    1  A    between atoms: N_1  and  CA_2 
REMARK    2  A    between atoms: CA_2  and  C_3 
REMARK    3  A    between atoms: CA_2  and  CB_5 
REMARK       I    between atoms: C_3  and  N_10 
REMARK    4  A    between atoms: CB_5  and  CG_6 
REMARK    5  A    between atoms: CG_6  and  CD_7 
REMARK    6  A    between atoms: N_10  and  CA_11 
REMARK    7  A    between atoms: CA_11  and  C_12 
REMARK    8  A    between atoms: CA_11  and  CB_14 
REMARK       I    between atoms: C_12  and  N_18 
REMARK    9  A    between atoms: CB_14  and  CG_15 
REMARK   10  A    between atoms: N_18  and  CA_19 
REMARK   11  A    between atoms: CA_19  and  C_20 
REMARK   12  A    between atoms: CA_19  and  CB_22 
REMARK   13  A    between atoms: CB_22  and  CG_23 
ROOT
ATOM      1  CA  MOL A   1      18.549  16.135  50.856  1.00  0.00     0.186 C 
ENDROOT
BRANCH   1   2
ATOM      2  N   MOL A   1      17.169  16.369  50.453  1.00  0.00    -0.345 N 
ATOM      3  C   MOL A   1      16.811  17.425  49.734  1.00  0.00     0.249 C 
ATOM      4  O   MOL A   1      17.604  18.308  49.391  1.00  0.00    -0.271 OA
ATOM      5  H9  MOL A   1      16.467  15.711  50.728  1.00  0.00     0.163 HD
BRANCH   3   6
ATOM      6  CA  MOL A   1      15.324  17.529  49.397  1.00  0.00     0.275 C 
BRANCH   6   7
ATOM      7  N   MOL A   1      14.965  16.549  48.337  1.00  0.00    -0.066 N 
ATOM      8  H1  MOL A   1      14.692  17.042  47.502  1.00  0.00     0.275 HD
ATOM      9  H2  MOL A   1      14.198  15.976  48.655  1.00  0.00     0.275 HD
ATOM     10  H3  MOL A   1      15.761  15.963  48.136  1.00  0.00     0.275 HD
ENDBRANCH   6   7
BRANCH   6  11
ATOM     11  CB  MOL A   1      14.465  17.311  50.645  1.00  0.00     0.053 C 
BRANCH  11  12
ATOM     12  CG  MOL A   1      13.562  16.096  50.568  1.00  0.00     0.115 C 
BRANCH  12  13
ATOM     13  CD  MOL A   1      14.160  14.869  51.229  1.00  0.00     0.172 C 
ATOM     14  OE1 MOL A   1      13.759  14.546  52.371  1.00  0.00    -0.648 OA
ATOM     15  OE2 MOL A   1      15.022  14.221  50.594  1.00  0.00    -0.648 OA
ENDBRANCH  12  13
ENDBRANCH  11  12
ENDBRANCH   6  11
ENDBRANCH   3   6
ENDBRANCH   1   2
BRANCH   1  16
ATOM     16  C   MOL A   1      18.985  14.773  50.345  1.00  0.00     0.241 C 
ATOM     17  O   MOL A   1      20.176  14.528  50.138  1.00  0.00    -0.271 OA
ATOM     18  N   MOL A   1      18.012  13.880  50.190  1.00  0.00    -0.345 N 
ATOM     19  H13 MOL A   1      17.070  14.153  50.389  1.00  0.00     0.163 HD
BRANCH  18  20
ATOM     20  CA  MOL A   1      18.271  12.521  49.742  1.00  0.00     0.185 C 
BRANCH  20  21
ATOM     21  C   MOL A   1      17.404  12.106  48.567  1.00  0.00     0.196 C 
ATOM     22  OXT MOL A   1      17.357  10.894  48.272  1.00  0.00    -0.646 OA
ATOM     23  O   MOL A   1      16.779  12.997  47.953  1.00  0.00    -0.646 OA
ENDBRANCH  20  21
BRANCH  20  24
ATOM     24  CB  MOL A   1      18.069  11.562  50.907  1.00  0.00     0.040 C 
BRANCH  24  25
ATOM     25  CG  MOL A   1      19.420  11.239  51.535  1.00  0.00    -0.020 C 
ATOM     26  CD2 MOL A   1      19.571   9.732  51.682  1.00  0.00     0.009 C 
ATOM     27  CD1 MOL A   1      19.576  11.964  52.838  1.00  0.00     0.009 C 
ENDBRANCH  24  25
ENDBRANCH  20  24
ENDBRANCH  18  20
ENDBRANCH   1  16
BRANCH   1  28
ATOM     28  CB  MOL A   1      18.665  16.224  52.376  1.00  0.00     0.147 C 
BRANCH  28  29
ATOM     29  CG  MOL A   1      17.381  15.816  53.068  1.00  0.00     0.175 C 
ATOM     30  OD1 MOL A   1      16.618  16.723  53.450  1.00  0.00    -0.648 OA
ATOM     31  OD2 MOL A   1      17.109  14.600  53.192  1.00  0.00    -0.648 OA
ENDBRANCH  28  29
ENDBRANCH   1  28
TORSDOF 13
ENDMDL
MODEL 8
REMARK VINA RESULT:       0.0     46.348     49.042
REMARK  13 active torsions:
REMARK  status: ('A' for Active; 'I' for Inactive)
REMARK    1  A    between atoms: N_1  and  CA_2 
REMARK    2  A    between atoms: CA_2  and  C_3 
REMARK    3  A    between atoms: CA_2  and  CB_5 
REMARK       I    between atoms: C_3  and  N_10 
REMARK    4  A    between atoms: CB_5  and  CG_6 
REMARK    5  A    between atoms: CG_6  and  CD_7 
REMARK    6  A    between atoms: N_10  and  CA_11 
REMARK    7  A    between atoms: CA_11  and  C_12 
REMARK    8  A    between atoms: CA_11  and  CB_14 
REMARK       I    between atoms: C_12  and  N_18 
REMARK    9  A    between atoms: CB_14  and  CG_15 
REMARK   10  A    between atoms: N_18  and  CA_19 
REMARK   11  A    between atoms: CA_19  and  C_20 
REMARK   12  A    between atoms: CA_19  and  CB_22 
REMARK   13  A    between atoms: CB_22  and  CG_23 
ROOT
ATOM      1  CA  MOL A   1      16.223  15.638  52.075  1.00  0.00     0.186 C 
ENDROOT
BRANCH   1   2
ATOM      2  N   MOL A   1      15.140  16.344  51.402  1.00  0.00    -0.345 N 
ATOM      3  C   MOL A   1      15.358  17.179  50.394  1.00  0.00     0.249 C 
ATOM      4  O   MOL A   1      16.489  17.457  49.981  1.00  0.00    -0.271 OA
ATOM      5  H9  MOL A   1      14.201  16.193  51.710  1.00  0.00     0.163 HD
BRANCH   3   6
ATOM      6  CA  MOL A   1      14.117  17.844  49.799  1.00  0.00     0.275 C 
BRANCH   6   7
ATOM      7  N   MOL A   1      13.357  16.870  48.970  1.00  0.00    -0.066 N 
ATOM      8  H1  MOL A   1      12.469  17.269  48.712  1.00  0.00     0.275 HD
ATOM      9  H2  MOL A   1      13.204  16.026  49.500  1.00  0.00     0.275 HD
ATOM     10  H3  MOL A   1      13.883  16.654  48.138  1.00  0.00     0.275 HD
ENDBRANCH   6   7
BRANCH   6  11
ATOM     11  CB  MOL A   1      13.227  18.423  50.901  1.00  0.00     0.053 C 
BRANCH  11  12
ATOM     12  CG  MOL A   1      11.851  17.791  50.978  1.00  0.00     0.115 C 
BRANCH  12  13
ATOM     13  CD  MOL A   1      11.761  16.686  52.012  1.00  0.00     0.172 C 
ATOM     14  OE1 MOL A   1      11.223  16.936  53.116  1.00  0.00    -0.648 OA
ATOM     15  OE2 MOL A   1      12.218  15.560  51.710  1.00  0.00    -0.648 OA
ENDBRANCH  12  13
ENDBRANCH  11  12
ENDBRANCH   6  11
ENDBRANCH   3   6
ENDBRANCH   1   2
BRANCH   1  16
ATOM     16  C   MOL A   1      15.959  14.145  51.996  1.00  0.00     0.241 C 
ATOM     17  O   MOL A   1      16.887  13.335  52.058  1.00  0.00    -0.271 OA
ATOM     18  N   MOL A   1      14.679  13.793  51.907  1.00  0.00    -0.345 N 
ATOM     19  H13 MOL A   1      13.982  14.509  51.873  1.00  0.00     0.163 HD
BRANCH  18  20
ATOM     20  CA  MOL A   1      14.260  12.401  51.859  1.00  0.00     0.185 C 
BRANCH  20  21
ATOM     21  C   MOL A   1      13.333  12.098  50.696  1.00  0.00     0.196 C 
ATOM     22  OXT MOL A   1      12.713  11.015  50.707  1.00  0.00    -0.646 OA
ATOM     23  O   MOL A   1      13.235  12.948  49.785  1.00  0.00    -0.646 OA
ENDBRANCH  20  21
BRANCH  20  24
ATOM     24  CB  MOL A   1      13.588  12.034  53.174  1.00  0.00     0.040 C 
BRANCH  24  25
ATOM     25  CG  MOL A   1      14.596  11.335  54.079  1.00  0.00    -0.020 C 
ATOM     26  CD2 MOL A   1      13.994  10.045  54.617  1.00  0.00     0.009 C 
ATOM     27  CD1 MOL A   1      15.047  12.260  55.169  1.00  0.00     0.009 C 
ENDBRANCH  24  25
ENDBRANCH  20  24
ENDBRANCH  18  20
ENDBRANCH   1  16
BRANCH   1  28
ATOM     28  CB  MOL A   1      16.326  16.111  53.522  1.00  0.00     0.147 C 
BRANCH  28  29
ATOM     29  CG  MOL A   1      14.987  16.560  54.070  1.00  0.00     0.175 C 
ATOM     30  OD1 MOL A   1      14.749  17.782  54.083  1.00  0.00    -0.648 OA
ATOM     31  OD2 MOL A   1      14.157  15.700  54.444  1.00  0.00    -0.648 OA
ENDBRANCH  28  29
ENDBRANCH   1  28
TORSDOF 13
ENDMDL
