MODEL 1
REMARK VINA RESULT:      -6.3      0.000      0.000
REMARK  13 active torsions:
REMARK  status: ('A' for Active; 'I' for Inactive)
REMARK    1  A    between atoms: N_1  and  CA_2 
REMARK    2  A    between atoms: CA_2  and  C_3 
REMARK    3  A    between atoms: CA_2  and  CB_5 
REMARK       I    between atoms: C_3  and  N_10 
REMARK    4  A    between atoms: CB_5  and  CG_6 
REMARK    5  A    between atoms: CG_6  and  CD_7 
REMARK    6  A    between atoms: N_10  and  CA_11 
REMARK    7  A    between atoms: CA_11  and  C_12 
REMARK    8  A    between atoms: CA_11  and  CB_14 
REMARK       I    between atoms: C_12  and  N_18 
REMARK    9  A    between atoms: CB_14  and  CG_15 
REMARK   10  A    between atoms: N_18  and  CA_19 
REMARK   11  A    between atoms: CA_19  and  C_20 
REMARK   12  A    between atoms: CA_19  and  CB_22 
REMARK   13  A    between atoms: CB_22  and  CG_23 
ROOT
ATOM      1  CA  MOL A   1       7.934  26.688   6.037  1.00  0.00     0.186 C 
ENDROOT
BRANCH   1   2
ATOM      2  N   MOL A   1       6.876  26.339   5.099  1.00  0.00    -0.345 N 
ATOM      3  C   MOL A   1       6.880  26.757   3.839  1.00  0.00     0.249 C 
ATOM      4  O   MOL A   1       7.750  27.506   3.379  1.00  0.00    -0.271 OA
ATOM      5  H9  MOL A   1       6.120  25.765   5.414  1.00  0.00     0.163 HD
BRANCH   3   6
ATOM      6  CA  MOL A   1       5.696  26.308   2.984  1.00  0.00     0.275 C 
BRANCH   6   7
ATOM      7  N   MOL A   1       6.178  25.653   1.738  1.00  0.00    -0.066 N 
ATOM      8  H1  MOL A   1       6.076  26.288   0.963  1.00  0.00     0.275 HD
ATOM      9  H2  MOL A   1       5.635  24.821   1.564  1.00  0.00     0.275 HD
ATOM     10  H3  MOL A   1       7.149  25.404   1.842  1.00  0.00     0.275 HD
ENDBRANCH   6   7
BRANCH   6  11
ATOM     11  CB  MOL A   1       4.782  25.364   3.769  1.00  0.00     0.053 C 
BRANCH  11  12
ATOM     12  CG  MOL A   1       4.746  23.949   3.228  1.00  0.00     0.115 C 
BRANCH  12  13
ATOM     13  CD  MOL A   1       3.716  23.075   3.917  1.00  0.00     0.172 C 
ATOM     14  OE1 MOL A   1       2.574  23.544   4.128  1.00  0.00    -0.648 OA
ATOM     15  OE2 MOL A   1       4.051  21.911   4.234  1.00  0.00    -0.648 OA
ENDBRANCH  12  13
ENDBRANCH  11  12
ENDBRANCH   6  11
ENDBRANCH   3   6
ENDBRANCH   1   2
BRANCH   1  16
ATOM     16  C   MOL A   1       8.939  25.552   6.088  1.00  0.00     0.241 C 
ATOM     17  O   MOL A   1       8.942  24.753   7.027  1.00  0.00    -0.271 OA
ATOM     18  N   MOL A   1       9.758  25.464   5.044  1.00  0.00    -0.345 N 
ATOM     19  H13 MOL A   1       9.687  26.145   4.315  1.00  0.00     0.163 HD
BRANCH  18  20
ATOM     20  CA  MOL A   1      10.754  24.410   4.926  1.00  0.00     0.185 C 
BRANCH  20  21
ATOM     21  C   MOL A   1      12.128  24.831   5.414  1.00  0.00     0.196 C 
ATOM     22  OXT MOL A   1      13.009  25.060   4.560  1.00  0.00    -0.646 OA
ATOM     23  O   MOL A   1      12.310  24.930   6.647  1.00  0.00    -0.646 OA
ENDBRANCH  20  21
BRANCH  20  24
ATOM     24  CB  MOL A   1      10.830  23.953   3.476  1.00  0.00     0.040 C 
BRANCH  24  25
ATOM     25  CG  MOL A   1      10.805  22.429   3.424  1.00  0.00    -0.020 C 
ATOM     26  CD2 MOL A   1      12.186  21.906   3.055  1.00  0.00     0.009 C 
ATOM     27  CD1 MOL A   1       9.738  21.957   2.484  1.00  0.00     0.009 C 
ENDBRANCH  24  25
ENDBRANCH  20  24
ENDBRANCH  18  20
ENDBRANCH   1  16
BRANCH   1  28
ATOM     28  CB  MOL A   1       7.333  26.964   7.413  1.00  0.00     0.147 C 
BRANCH  28  29
ATOM     29  CG  MOL A   1       8.312  27.670   8.329  1.00  0.00     0.175 C 
ATOM     30  OD1 MOL A   1       8.524  27.163   9.446  1.00  0.00    -0.648 OA
ATOM     31  OD2 MOL A   1       8.900  28.698   7.924  1.00  0.00    -0.648 OA
ENDBRANCH  28  29
ENDBRANCH   1  28
TORSDOF 13
ENDMDL
MODEL 2
REMARK VINA RESULT:      -5.5      9.728     13.552
REMARK  13 active torsions:
REMARK  status: ('A' for Active; 'I' for Inactive)
REMARK    1  A    between atoms: N_1  and  CA_2 
REMARK    2  A    between atoms: CA_2  and  C_3 
REMARK    3  A    between atoms: CA_2  and  CB_5 
REMARK       I    between atoms: C_3  and  N_10 
REMARK    4  A    between atoms: CB_5  and  CG_6 
REMARK    5  A    between atoms: CG_6  and  CD_7 
REMARK    6  A    between atoms: N_10  and  CA_11 
REMARK    7  A    between atoms: CA_11  and  C_12 
REMARK    8  A    between atoms: CA_11  and  CB_14 
REMARK       I    between atoms: C_12  and  N_18 
REMARK    9  A    between atoms: CB_14  and  CG_15 
REMARK   10  A    between atoms: N_18  and  CA_19 
REMARK   11  A    between atoms: CA_19  and  C_20 
REMARK   12  A    between atoms: CA_19  and  CB_22 
REMARK   13  A    between atoms: CB_22  and  CG_23 
ROOT
ATOM      1  CA  MOL A   1      18.442  19.792   9.805  1.00  0.00     0.186 C 
ENDROOT
BRANCH   1   2
ATOM      2  N   MOL A   1      19.056  18.491   9.571  1.00  0.00    -0.345 N 
ATOM      3  C   MOL A   1      19.250  17.614  10.548  1.00  0.00     0.249 C 
ATOM      4  O   MOL A   1      18.969  17.846  11.729  1.00  0.00    -0.271 OA
ATOM      5  H9  MOL A   1      19.342  18.252   8.643  1.00  0.00     0.163 HD
BRANCH   3   6
ATOM      6  CA  MOL A   1      19.910  16.297  10.140  1.00  0.00     0.275 C 
BRANCH   6   7
ATOM      7  N   MOL A   1      21.210  16.131  10.845  1.00  0.00    -0.066 N 
ATOM      8  H1  MOL A   1      21.620  15.247  10.589  1.00  0.00     0.275 HD
ATOM      9  H2  MOL A   1      21.057  16.156  11.841  1.00  0.00     0.275 HD
ATOM     10  H3  MOL A   1      21.833  16.879  10.581  1.00  0.00     0.275 HD
ENDBRANCH   6   7
BRANCH   6  11
ATOM     11  CB  MOL A   1      18.986  15.111  10.428  1.00  0.00     0.053 C 
BRANCH  11  12
ATOM     12  CG  MOL A   1      18.126  14.699   9.249  1.00  0.00     0.115 C 
BRANCH  12  13
ATOM     13  CD  MOL A   1      18.559  13.386   8.628  1.00  0.00     0.172 C 
ATOM     14  OE1 MOL A   1      17.767  12.793   7.860  1.00  0.00    -0.648 OA
ATOM     15  OE2 MOL A   1      19.703  12.956   8.901  1.00  0.00    -0.648 OA
ENDBRANCH  12  13
ENDBRANCH  11  12
ENDBRANCH   6  11
ENDBRANCH   3   6
ENDBRANCH   1   2
BRANCH   1  16
ATOM     16  C   MOL A   1      17.035  19.779   9.236  1.00  0.00     0.241 C 
ATOM     17  O   MOL A   1      16.190  18.985   9.658  1.00  0.00    -0.271 OA
ATOM     18  N   MOL A   1      16.782  20.699   8.309  1.00  0.00    -0.345 N 
ATOM     19  H13 MOL A   1      17.518  21.315   8.027  1.00  0.00     0.163 HD
BRANCH  18  20
ATOM     20  CA  MOL A   1      15.472  20.839   7.693  1.00  0.00     0.185 C 
BRANCH  20  21
ATOM     21  C   MOL A   1      15.469  20.495   6.214  1.00  0.00     0.196 C 
ATOM     22  OXT MOL A   1      16.561  20.223   5.674  1.00  0.00    -0.646 OA
ATOM     23  O   MOL A   1      14.375  20.498   5.612  1.00  0.00    -0.646 OA
ENDBRANCH  20  21
BRANCH  20  24
ATOM     24  CB  MOL A   1      14.971  22.261   7.901  1.00  0.00     0.040 C 
BRANCH  24  25
ATOM     25  CG  MOL A   1      13.669  22.227   8.695  1.00  0.00    -0.020 C 
ATOM     26  CD2 MOL A   1      12.867  23.491   8.419  1.00  0.00     0.009 C 
ATOM     27  CD1 MOL A   1      13.954  22.031  10.153  1.00  0.00     0.009 C 
ENDBRANCH  24  25
ENDBRANCH  20  24
ENDBRANCH  18  20
ENDBRANCH   1  16
BRANCH   1  28
ATOM     28  CB  MOL A   1      19.293  20.886   9.165  1.00  0.00     0.147 C 
BRANCH  28  29
ATOM     29  CG  MOL A   1      20.309  21.454  10.135  1.00  0.00     0.175 C 
ATOM     30  OD1 MOL A   1      20.600  22.660  10.024  1.00  0.00    -0.648 OA
ATOM     31  OD2 MOL A   1      20.782  20.718  11.030  1.00  0.00    -0.648 OA
ENDBRANCH  28  29
ENDBRANCH   1  28
TORSDOF 13
ENDMDL
MODEL 3
REMARK VINA RESULT:      -5.3     20.028     24.136
REMARK  13 active torsions:
REMARK  status: ('A' for Active; 'I' for Inactive)
REMARK    1  A    between atoms: N_1  and  CA_2 
REMARK    2  A    between atoms: CA_2  and  C_3 
REMARK    3  A    between atoms: CA_2  and  CB_5 
REMARK       I    between atoms: C_3  and  N_10 
REMARK    4  A    between atoms: CB_5  and  CG_6 
REMARK    5  A    between atoms: CG_6  and  CD_7 
REMARK    6  A    between atoms: N_10  and  CA_11 
REMARK    7  A    between atoms: CA_11  and  C_12 
REMARK    8  A    between atoms: CA_11  and  CB_14 
REMARK       I    between atoms: C_12  and  N_18 
REMARK    9  A    between atoms: CB_14  and  CG_15 
REMARK   10  A    between atoms: N_18  and  CA_19 
REMARK   11  A    between atoms: CA_19  and  C_20 
REMARK   12  A    between atoms: CA_19  and  CB_22 
REMARK   13  A    between atoms: CB_22  and  CG_23 
ROOT
ATOM      1  CA  MOL A   1      27.230  18.281  -4.408  1.00  0.00     0.186 C 
ENDROOT
BRANCH   1   2
ATOM      2  N   MOL A   1      28.439  18.362  -5.216  1.00  0.00    -0.345 N 
ATOM      3  C   MOL A   1      28.940  19.520  -5.628  1.00  0.00     0.249 C 
ATOM      4  O   MOL A   1      28.399  20.608  -5.399  1.00  0.00    -0.271 OA
ATOM      5  H9  MOL A   1      28.908  17.516  -5.470  1.00  0.00     0.163 HD
BRANCH   3   6
ATOM      6  CA  MOL A   1      30.210  19.435  -6.472  1.00  0.00     0.275 C 
BRANCH   6   7
ATOM      7  N   MOL A   1      29.870  19.139  -7.890  1.00  0.00    -0.066 N 
ATOM      8  H1  MOL A   1      30.046  18.166  -8.082  1.00  0.00     0.275 HD
ATOM      9  H2  MOL A   1      30.438  19.710  -8.497  1.00  0.00     0.275 HD
ATOM     10  H3  MOL A   1      28.896  19.342  -8.052  1.00  0.00     0.275 HD
ENDBRANCH   6   7
BRANCH   6  11
ATOM     11  CB  MOL A   1      31.021  20.729  -6.371  1.00  0.00     0.053 C 
BRANCH  11  12
ATOM     12  CG  MOL A   1      32.421  20.538  -5.821  1.00  0.00     0.115 C 
BRANCH  12  13
ATOM     13  CD  MOL A   1      33.375  21.644  -6.228  1.00  0.00     0.172 C 
ATOM     14  OE1 MOL A   1      33.163  22.258  -7.299  1.00  0.00    -0.648 OA
ATOM     15  OE2 MOL A   1      34.331  21.907  -5.463  1.00  0.00    -0.648 OA
ENDBRANCH  12  13
ENDBRANCH  11  12
ENDBRANCH   6  11
ENDBRANCH   3   6
ENDBRANCH   1   2
BRANCH   1  16
ATOM     16  C   MOL A   1      27.594  18.527  -2.954  1.00  0.00     0.241 C 
ATOM     17  O   MOL A   1      27.993  17.606  -2.239  1.00  0.00    -0.271 OA
ATOM     18  N   MOL A   1      27.496  19.789  -2.545  1.00  0.00    -0.345 N 
ATOM     19  H13 MOL A   1      27.174  20.482  -3.189  1.00  0.00     0.163 HD
BRANCH  18  20
ATOM     20  CA  MOL A   1      27.843  20.193  -1.191  1.00  0.00     0.185 C 
BRANCH  20  21
ATOM     21  C   MOL A   1      26.734  20.963  -0.497  1.00  0.00     0.196 C 
ATOM     22  OXT MOL A   1      26.860  22.200  -0.384  1.00  0.00    -0.646 OA
ATOM     23  O   MOL A   1      25.748  20.322  -0.074  1.00  0.00    -0.646 OA
ENDBRANCH  20  21
BRANCH  20  24
ATOM     24  CB  MOL A   1      29.116  21.027  -1.228  1.00  0.00     0.040 C 
BRANCH  24  25
ATOM     25  CG  MOL A   1      30.324  20.110  -1.071  1.00  0.00    -0.020 C 
ATOM     26  CD2 MOL A   1      31.259  20.672  -0.009  1.00  0.00     0.009 C 
ATOM     27  CD1 MOL A   1      31.004  19.912  -2.392  1.00  0.00     0.009 C 
ENDBRANCH  24  25
ENDBRANCH  20  24
ENDBRANCH  18  20
ENDBRANCH   1  16
BRANCH   1  28
ATOM     28  CB  MOL A   1      26.574  16.915  -4.596  1.00  0.00     0.147 C 
BRANCH  28  29
ATOM     29  CG  MOL A   1      25.844  16.813  -5.919  1.00  0.00     0.175 C 
ATOM     30  OD1 MOL A   1      25.639  15.674  -6.379  1.00  0.00    -0.648 OA
ATOM     31  OD2 MOL A   1      25.438  17.857  -6.478  1.00  0.00    -0.648 OA
ENDBRANCH  28  29
ENDBRANCH   1  28
TORSDOF 13
ENDMDL
MODEL 4
REMARK VINA RESULT:      -5.2     19.331     22.178
REMARK  13 active torsions:
REMARK  status: ('A' for Active; 'I' for Inactive)
REMARK    1  A    between atoms: N_1  and  CA_2 
REMARK    2  A    between atoms: CA_2  and  C_3 
REMARK    3  A    between atoms: CA_2  and  CB_5 
REMARK       I    between atoms: C_3  and  N_10 
REMARK    4  A    between atoms: CB_5  and  CG_6 
REMARK    5  A    between atoms: CG_6  and  CD_7 
REMARK    6  A    between atoms: N_10  and  CA_11 
REMARK    7  A    between atoms: CA_11  and  C_12 
REMARK    8  A    between atoms: CA_11  and  CB_14 
REMARK       I    between atoms: C_12  and  N_18 
REMARK    9  A    between atoms: CB_14  and  CG_15 
REMARK   10  A    between atoms: N_18  and  CA_19 
REMARK   11  A    between atoms: CA_19  and  C_20 
REMARK   12  A    between atoms: CA_19  and  CB_22 
REMARK   13  A    between atoms: CB_22  and  CG_23 
ROOT
ATOM      1  CA  MOL A   1      25.697  15.972  -2.050  1.00  0.00     0.186 C 
ENDROOT
BRANCH   1   2
ATOM      2  N   MOL A   1      26.473  15.390  -3.137  1.00  0.00    -0.345 N 
ATOM      3  C   MOL A   1      26.134  15.545  -4.411  1.00  0.00     0.249 C 
ATOM      4  O   MOL A   1      25.118  16.150  -4.770  1.00  0.00    -0.271 OA
ATOM      5  H9  MOL A   1      27.289  14.856  -2.916  1.00  0.00     0.163 HD
BRANCH   3   6
ATOM      6  CA  MOL A   1      27.049  14.868  -5.431  1.00  0.00     0.275 C 
BRANCH   6   7
ATOM      7  N   MOL A   1      26.408  14.859  -6.774  1.00  0.00    -0.066 N 
ATOM      8  H1  MOL A   1      26.186  13.911  -7.034  1.00  0.00     0.275 HD
ATOM      9  H2  MOL A   1      27.043  15.253  -7.451  1.00  0.00     0.275 HD
ATOM     10  H3  MOL A   1      25.562  15.407  -6.747  1.00  0.00     0.275 HD
ENDBRANCH   6   7
BRANCH   6  11
ATOM     11  CB  MOL A   1      28.411  15.564  -5.489  1.00  0.00     0.053 C 
BRANCH  11  12
ATOM     12  CG  MOL A   1      28.560  16.532  -6.646  1.00  0.00     0.115 C 
BRANCH  12  13
ATOM     13  CD  MOL A   1      28.347  17.978  -6.244  1.00  0.00     0.172 C 
ATOM     14  OE1 MOL A   1      27.184  18.444  -6.266  1.00  0.00    -0.648 OA
ATOM     15  OE2 MOL A   1      29.347  18.643  -5.891  1.00  0.00    -0.648 OA
ENDBRANCH  12  13
ENDBRANCH  11  12
ENDBRANCH   6  11
ENDBRANCH   3   6
ENDBRANCH   1   2
BRANCH   1  16
ATOM     16  C   MOL A   1      26.596  16.891  -1.243  1.00  0.00     0.241 C 
ATOM     17  O   MOL A   1      27.810  16.688  -1.176  1.00  0.00    -0.271 OA
ATOM     18  N   MOL A   1      25.990  17.929  -0.673  1.00  0.00    -0.345 N 
ATOM     19  H13 MOL A   1      25.001  18.031  -0.782  1.00  0.00     0.163 HD
BRANCH  18  20
ATOM     20  CA  MOL A   1      26.718  18.921   0.104  1.00  0.00     0.185 C 
BRANCH  20  21
ATOM     21  C   MOL A   1      26.112  19.166   1.474  1.00  0.00     0.196 C 
ATOM     22  OXT MOL A   1      26.833  19.690   2.348  1.00  0.00    -0.646 OA
ATOM     23  O   MOL A   1      24.922  18.834   1.659  1.00  0.00    -0.646 OA
ENDBRANCH  20  21
BRANCH  20  24
ATOM     24  CB  MOL A   1      26.783  20.223  -0.682  1.00  0.00     0.040 C 
BRANCH  24  25
ATOM     25  CG  MOL A   1      28.092  20.276  -1.463  1.00  0.00    -0.020 C 
ATOM     26  CD2 MOL A   1      28.762  21.625  -1.248  1.00  0.00     0.009 C 
ATOM     27  CD1 MOL A   1      27.847  19.977  -2.911  1.00  0.00     0.009 C 
ENDBRANCH  24  25
ENDBRANCH  20  24
ENDBRANCH  18  20
ENDBRANCH   1  16
BRANCH   1  28
ATOM     28  CB  MOL A   1      25.111  14.861  -1.182  1.00  0.00     0.147 C 
BRANCH  28  29
ATOM     29  CG  MOL A   1      24.069  14.050  -1.926  1.00  0.00     0.175 C 
ATOM     30  OD1 MOL A   1      22.893  14.457  -1.896  1.00  0.00    -0.648 OA
ATOM     31  OD2 MOL A   1      24.424  13.038  -2.572  1.00  0.00    -0.648 OA
ENDBRANCH  28  29
ENDBRANCH   1  28
TORSDOF 13
ENDMDL
MODEL 5
REMARK VINA RESULT:      -5.2     18.968     21.876
REMARK  13 active torsions:
REMARK  status: ('A' for Active; 'I' for Inactive)
REMARK    1  A    between atoms: N_1  and  CA_2 
REMARK    2  A    between atoms: CA_2  and  C_3 
REMARK    3  A    between atoms: CA_2  and  CB_5 
REMARK       I    between atoms: C_3  and  N_10 
REMARK    4  A    between atoms: CB_5  and  CG_6 
REMARK    5  A    between atoms: CG_6  and  CD_7 
REMARK    6  A    between atoms: N_10  and  CA_11 
REMARK    7  A    between atoms: CA_11  and  C_12 
REMARK    8  A    between atoms: CA_11  and  CB_14 
REMARK       I    between atoms: C_12  and  N_18 
REMARK    9  A    between atoms: CB_14  and  CG_15 
REMARK   10  A    between atoms: N_18  and  CA_19 
REMARK   11  A    between atoms: CA_19  and  C_20 
REMARK   12  A    between atoms: CA_19  and  CB_22 
REMARK   13  A    between atoms: CB_22  and  CG_23 
ROOT
ATOM      1  CA  MOL A   1      27.753  20.195  -2.003  1.00  0.00     0.186 C 
ENDROOT
BRANCH   1   2
ATOM      2  N   MOL A   1      27.095  19.139  -1.244  1.00  0.00    -0.345 N 
ATOM      3  C   MOL A   1      26.135  19.394  -0.363  1.00  0.00     0.249 C 
ATOM      4  O   MOL A   1      25.759  20.538  -0.086  1.00  0.00    -0.271 OA
ATOM      5  H9  MOL A   1      27.376  18.191  -1.392  1.00  0.00     0.163 HD
BRANCH   3   6
ATOM      6  CA  MOL A   1      25.550  18.178   0.354  1.00  0.00     0.275 C 
BRANCH   6   7
ATOM      7  N   MOL A   1      26.541  17.069   0.384  1.00  0.00    -0.066 N 
ATOM      8  H1  MOL A   1      26.396  16.467  -0.411  1.00  0.00     0.275 HD
ATOM      9  H2  MOL A   1      26.425  16.538   1.233  1.00  0.00     0.275 HD
ATOM     10  H3  MOL A   1      27.473  17.450   0.350  1.00  0.00     0.275 HD
ENDBRANCH   6   7
BRANCH   6  11
ATOM     11  CB  MOL A   1      25.106  18.542   1.773  1.00  0.00     0.053 C 
BRANCH  11  12
ATOM     12  CG  MOL A   1      26.065  18.087   2.855  1.00  0.00     0.115 C 
BRANCH  12  13
ATOM     13  CD  MOL A   1      25.371  17.739   4.157  1.00  0.00     0.172 C 
ATOM     14  OE1 MOL A   1      25.432  18.553   5.108  1.00  0.00    -0.648 OA
ATOM     15  OE2 MOL A   1      24.751  16.653   4.221  1.00  0.00    -0.648 OA
ENDBRANCH  12  13
ENDBRANCH  11  12
ENDBRANCH   6  11
ENDBRANCH   3   6
ENDBRANCH   1   2
BRANCH   1  16
ATOM     16  C   MOL A   1      27.847  19.768  -3.457  1.00  0.00     0.241 C 
ATOM     17  O   MOL A   1      28.432  20.470  -4.284  1.00  0.00    -0.271 OA
ATOM     18  N   MOL A   1      27.306  18.587  -3.743  1.00  0.00    -0.345 N 
ATOM     19  H13 MOL A   1      26.858  18.071  -3.013  1.00  0.00     0.163 HD
BRANCH  18  20
ATOM     20  CA  MOL A   1      27.345  18.021  -5.083  1.00  0.00     0.185 C 
BRANCH  20  21
ATOM     21  C   MOL A   1      26.000  17.493  -5.546  1.00  0.00     0.196 C 
ATOM     22  OXT MOL A   1      25.492  16.545  -4.912  1.00  0.00    -0.646 OA
ATOM     23  O   MOL A   1      25.465  18.033  -6.538  1.00  0.00    -0.646 OA
ENDBRANCH  20  21
BRANCH  20  24
ATOM     24  CB  MOL A   1      28.388  16.913  -5.128  1.00  0.00     0.040 C 
BRANCH  24  25
ATOM     25  CG  MOL A   1      29.666  17.448  -5.764  1.00  0.00    -0.020 C 
ATOM     26  CD2 MOL A   1      29.316  18.352  -6.937  1.00  0.00     0.009 C 
ATOM     27  CD1 MOL A   1      30.567  16.316  -6.156  1.00  0.00     0.009 C 
ENDBRANCH  24  25
ENDBRANCH  20  24
ENDBRANCH  18  20
ENDBRANCH   1  16
BRANCH   1  28
ATOM     28  CB  MOL A   1      29.132  20.472  -1.411  1.00  0.00     0.147 C 
BRANCH  28  29
ATOM     29  CG  MOL A   1      29.653  19.297  -0.609  1.00  0.00     0.175 C 
ATOM     30  OD1 MOL A   1      29.549  19.353   0.630  1.00  0.00    -0.648 OA
ATOM     31  OD2 MOL A   1      30.122  18.303  -1.210  1.00  0.00    -0.648 OA
ENDBRANCH  28  29
ENDBRANCH   1  28
TORSDOF 13
ENDMDL
MODEL 6
REMARK VINA RESULT:      -5.2     18.930     21.134
REMARK  13 active torsions:
REMARK  status: ('A' for Active; 'I' for Inactive)
REMARK    1  A    between atoms: N_1  and  CA_2 
REMARK    2  A    between atoms: CA_2  and  C_3 
REMARK    3  A    between atoms: CA_2  and  CB_5 
REMARK       I    between atoms: C_3  and  N_10 
REMARK    4  A    between atoms: CB_5  and  CG_6 
REMARK    5  A    between atoms: CG_6  and  CD_7 
REMARK    6  A    between atoms: N_10  and  CA_11 
REMARK    7  A    between atoms: CA_11  and  C_12 
REMARK    8  A    between atoms: CA_11  and  CB_14 
REMARK       I    between atoms: C_12  and  N_18 
REMARK    9  A    between atoms: CB_14  and  CG_15 
REMARK   10  A    between atoms: N_18  and  CA_19 
REMARK   11  A    between atoms: CA_19  and  C_20 
REMARK   12  A    between atoms: CA_19  and  CB_22 
REMARK   13  A    between atoms: CB_22  and  CG_23 
ROOT
ATOM      1  CA  MOL A   1      26.526  17.480  -0.534  1.00  0.00     0.186 C 
ENDROOT
BRANCH   1   2
ATOM      2  N   MOL A   1      26.575  17.703  -1.973  1.00  0.00    -0.345 N 
ATOM      3  C   MOL A   1      27.448  18.532  -2.532  1.00  0.00     0.249 C 
ATOM      4  O   MOL A   1      28.250  19.207  -1.879  1.00  0.00    -0.271 OA
ATOM      5  H9  MOL A   1      25.928  17.215  -2.559  1.00  0.00     0.163 HD
BRANCH   3   6
ATOM      6  CA  MOL A   1      27.367  18.658  -4.053  1.00  0.00     0.275 C 
BRANCH   6   7
ATOM      7  N   MOL A   1      28.047  19.902  -4.505  1.00  0.00    -0.066 N 
ATOM      8  H1  MOL A   1      28.197  20.509  -3.715  1.00  0.00     0.275 HD
ATOM      9  H2  MOL A   1      27.469  20.372  -5.185  1.00  0.00     0.275 HD
ATOM     10  H3  MOL A   1      28.934  19.668  -4.921  1.00  0.00     0.275 HD
ENDBRANCH   6   7
BRANCH   6  11
ATOM     11  CB  MOL A   1      27.977  17.432  -4.736  1.00  0.00     0.053 C 
BRANCH  11  12
ATOM     12  CG  MOL A   1      27.339  17.087  -6.067  1.00  0.00     0.115 C 
BRANCH  12  13
ATOM     13  CD  MOL A   1      25.823  17.103  -6.022  1.00  0.00     0.172 C 
ATOM     14  OE1 MOL A   1      25.214  18.029  -6.605  1.00  0.00    -0.648 OA
ATOM     15  OE2 MOL A   1      25.244  16.176  -5.412  1.00  0.00    -0.648 OA
ENDBRANCH  12  13
ENDBRANCH  11  12
ENDBRANCH   6  11
ENDBRANCH   3   6
ENDBRANCH   1   2
BRANCH   1  16
ATOM     16  C   MOL A   1      26.427  15.988  -0.272  1.00  0.00     0.241 C 
ATOM     17  O   MOL A   1      27.414  15.258  -0.393  1.00  0.00    -0.271 OA
ATOM     18  N   MOL A   1      25.237  15.555   0.135  1.00  0.00    -0.345 N 
ATOM     19  H13 MOL A   1      24.488  16.211   0.219  1.00  0.00     0.163 HD
BRANCH  18  20
ATOM     20  CA  MOL A   1      24.990  14.158   0.461  1.00  0.00     0.185 C 
BRANCH  20  21
ATOM     21  C   MOL A   1      24.169  13.437  -0.592  1.00  0.00     0.196 C 
ATOM     22  OXT MOL A   1      24.720  13.159  -1.677  1.00  0.00    -0.646 OA
ATOM     23  O   MOL A   1      22.982  13.156  -0.322  1.00  0.00    -0.646 OA
ENDBRANCH  20  21
BRANCH  20  24
ATOM     24  CB  MOL A   1      24.298  14.076   1.814  1.00  0.00     0.040 C 
BRANCH  24  25
ATOM     25  CG  MOL A   1      24.830  15.179   2.722  1.00  0.00    -0.020 C 
ATOM     26  CD2 MOL A   1      26.007  14.655   3.530  1.00  0.00     0.009 C 
ATOM     27  CD1 MOL A   1      23.730  15.718   3.586  1.00  0.00     0.009 C 
ENDBRANCH  24  25
ENDBRANCH  20  24
ENDBRANCH  18  20
ENDBRANCH   1  16
BRANCH   1  28
ATOM     28  CB  MOL A   1      25.341  18.232   0.065  1.00  0.00     0.147 C 
BRANCH  28  29
ATOM     29  CG  MOL A   1      25.755  19.562   0.662  1.00  0.00     0.175 C 
ATOM     30  OD1 MOL A   1      26.245  19.553   1.806  1.00  0.00    -0.648 OA
ATOM     31  OD2 MOL A   1      25.634  20.605  -0.020  1.00  0.00    -0.648 OA
ENDBRANCH  28  29
ENDBRANCH   1  28
TORSDOF 13
ENDMDL
MODEL 7
REMARK VINA RESULT:      -5.0     20.590     24.032
REMARK  13 active torsions:
REMARK  status: ('A' for Active; 'I' for Inactive)
REMARK    1  A    between atoms: N_1  and  CA_2 
REMARK    2  A    between atoms: CA_2  and  C_3 
REMARK    3  A    between atoms: CA_2  and  CB_5 
REMARK       I    between atoms: C_3  and  N_10 
REMARK    4  A    between atoms: CB_5  and  CG_6 
REMARK    5  A    between atoms: CG_6  and  CD_7 
REMARK    6  A    between atoms: N_10  and  CA_11 
REMARK    7  A    between atoms: CA_11  and  C_12 
REMARK    8  A    between atoms: CA_11  and  CB_14 
REMARK       I    between atoms: C_12  and  N_18 
REMARK    9  A    between atoms: CB_14  and  CG_15 
REMARK   10  A    between atoms: N_18  and  CA_19 
REMARK   11  A    between atoms: CA_19  and  C_20 
REMARK   12  A    between atoms: CA_19  and  CB_22 
REMARK   13  A    between atoms: CB_22  and  CG_23 
ROOT
ATOM      1  CA  MOL A   1      28.511  18.834  -1.193  1.00  0.00     0.186 C 
ENDROOT
BRANCH   1   2
ATOM      2  N   MOL A   1      29.479  19.879  -0.890  1.00  0.00    -0.345 N 
ATOM      3  C   MOL A   1      30.553  19.655  -0.142  1.00  0.00     0.249 C 
ATOM      4  O   MOL A   1      30.790  18.564   0.388  1.00  0.00    -0.271 OA
ATOM      5  H9  MOL A   1      29.330  20.797  -1.257  1.00  0.00     0.163 HD
BRANCH   3   6
ATOM      6  CA  MOL A   1      31.468  20.857   0.087  1.00  0.00     0.275 C 
BRANCH   6   7
ATOM      7  N   MOL A   1      31.743  21.028   1.539  1.00  0.00    -0.066 N 
ATOM      8  H1  MOL A   1      30.960  21.486   1.977  1.00  0.00     0.275 HD
ATOM      9  H2  MOL A   1      32.572  21.589   1.660  1.00  0.00     0.275 HD
ATOM     10  H3  MOL A   1      31.883  20.125   1.964  1.00  0.00     0.275 HD
ENDBRANCH   6   7
BRANCH   6  11
ATOM     11  CB  MOL A   1      32.776  20.703  -0.694  1.00  0.00     0.053 C 
BRANCH  11  12
ATOM     12  CG  MOL A   1      33.989  21.268   0.019  1.00  0.00     0.115 C 
BRANCH  12  13
ATOM     13  CD  MOL A   1      34.366  22.657  -0.458  1.00  0.00     0.172 C 
ATOM     14  OE1 MOL A   1      34.482  23.573   0.389  1.00  0.00    -0.648 OA
ATOM     15  OE2 MOL A   1      34.559  22.825  -1.683  1.00  0.00    -0.648 OA
ENDBRANCH  12  13
ENDBRANCH  11  12
ENDBRANCH   6  11
ENDBRANCH   3   6
ENDBRANCH   1   2
BRANCH   1  16
ATOM     16  C   MOL A   1      28.760  18.328  -2.603  1.00  0.00     0.241 C 
ATOM     17  O   MOL A   1      29.606  17.458  -2.822  1.00  0.00    -0.271 OA
ATOM     18  N   MOL A   1      27.980  18.851  -3.545  1.00  0.00    -0.345 N 
ATOM     19  H13 MOL A   1      27.309  19.546  -3.286  1.00  0.00     0.163 HD
BRANCH  18  20
ATOM     20  CA  MOL A   1      28.070  18.446  -4.939  1.00  0.00     0.185 C 
BRANCH  20  21
ATOM     21  C   MOL A   1      28.509  19.570  -5.859  1.00  0.00     0.196 C 
ATOM     22  OXT MOL A   1      28.611  20.717  -5.377  1.00  0.00    -0.646 OA
ATOM     23  O   MOL A   1      28.748  19.293  -7.054  1.00  0.00    -0.646 OA
ENDBRANCH  20  21
BRANCH  20  24
ATOM     24  CB  MOL A   1      26.724  17.895  -5.389  1.00  0.00     0.040 C 
BRANCH  24  25
ATOM     25  CG  MOL A   1      26.707  16.383  -5.197  1.00  0.00    -0.020 C 
ATOM     26  CD2 MOL A   1      26.482  15.699  -6.538  1.00  0.00     0.009 C 
ATOM     27  CD1 MOL A   1      25.683  15.998  -4.174  1.00  0.00     0.009 C 
ENDBRANCH  24  25
ENDBRANCH  20  24
ENDBRANCH  18  20
ENDBRANCH   1  16
BRANCH   1  28
ATOM     28  CB  MOL A   1      27.095  19.381  -1.037  1.00  0.00     0.147 C 
BRANCH  28  29
ATOM     29  CG  MOL A   1      27.072  20.896  -1.007  1.00  0.00     0.175 C 
ATOM     30  OD1 MOL A   1      27.391  21.498  -2.049  1.00  0.00    -0.648 OA
ATOM     31  OD2 MOL A   1      26.698  21.484   0.033  1.00  0.00    -0.648 OA
ENDBRANCH  28  29
ENDBRANCH   1  28
TORSDOF 13
ENDMDL
MODEL 8
REMARK VINA RESULT:      -4.9     22.106     25.477
REMARK  13 active torsions:
REMARK  status: ('A' for Active; 'I' for Inactive)
REMARK    1  A    between atoms: N_1  and  CA_2 
REMARK    2  A    between atoms: CA_2  and  C_3 
REMARK    3  A    between atoms: CA_2  and  CB_5 
REMARK       I    between atoms: C_3  and  N_10 
REMARK    4  A    between atoms: CB_5  and  CG_6 
REMARK    5  A    between atoms: CG_6  and  CD_7 
REMARK    6  A    between atoms: N_10  and  CA_11 
REMARK    7  A    between atoms: CA_11  and  C_12 
REMARK    8  A    between atoms: CA_11  and  CB_14 
REMARK       I    between atoms: C_12  and  N_18 
REMARK    9  A    between atoms: CB_14  and  CG_15 
REMARK   10  A    between atoms: N_18  and  CA_19 
REMARK   11  A    between atoms: CA_19  and  C_20 
REMARK   12  A    between atoms: CA_19  and  CB_22 
REMARK   13  A    between atoms: CB_22  and  CG_23 
ROOT
ATOM      1  CA  MOL A   1      29.076  16.027  -6.655  1.00  0.00     0.186 C 
ENDROOT
BRANCH   1   2
ATOM      2  N   MOL A   1      28.518  17.264  -6.126  1.00  0.00    -0.345 N 
ATOM      3  C   MOL A   1      29.277  18.307  -5.812  1.00  0.00     0.249 C 
ATOM      4  O   MOL A   1      30.510  18.294  -5.898  1.00  0.00    -0.271 OA
ATOM      5  H9  MOL A   1      27.528  17.331  -5.996  1.00  0.00     0.163 HD
BRANCH   3   6
ATOM      6  CA  MOL A   1      28.539  19.528  -5.265  1.00  0.00     0.275 C 
BRANCH   6   7
ATOM      7  N   MOL A   1      27.314  19.107  -4.534  1.00  0.00    -0.066 N 
ATOM      8  H1  MOL A   1      27.417  19.320  -3.554  1.00  0.00     0.275 HD
ATOM      9  H2  MOL A   1      27.179  18.114  -4.649  1.00  0.00     0.275 HD
ATOM     10  H3  MOL A   1      26.516  19.600  -4.902  1.00  0.00     0.275 HD
ENDBRANCH   6   7
BRANCH   6  11
ATOM     11  CB  MOL A   1      29.451  20.355  -4.356  1.00  0.00     0.053 C 
BRANCH  11  12
ATOM     12  CG  MOL A   1      29.472  19.889  -2.914  1.00  0.00     0.115 C 
BRANCH  12  13
ATOM     13  CD  MOL A   1      28.750  20.834  -1.973  1.00  0.00     0.172 C 
ATOM     14  OE1 MOL A   1      27.624  21.271  -2.307  1.00  0.00    -0.648 OA
ATOM     15  OE2 MOL A   1      29.307  21.125  -0.891  1.00  0.00    -0.648 OA
ENDBRANCH  12  13
ENDBRANCH  11  12
ENDBRANCH   6  11
ENDBRANCH   3   6
ENDBRANCH   1   2
BRANCH   1  16
ATOM     16  C   MOL A   1      28.285  15.618  -7.885  1.00  0.00     0.241 C 
ATOM     17  O   MOL A   1      27.708  16.462  -8.574  1.00  0.00    -0.271 OA
ATOM     18  N   MOL A   1      28.308  14.320  -8.175  1.00  0.00    -0.345 N 
ATOM     19  H13 MOL A   1      28.808  13.699  -7.572  1.00  0.00     0.163 HD
BRANCH  18  20
ATOM     20  CA  MOL A   1      27.629  13.775  -9.340  1.00  0.00     0.185 C 
BRANCH  20  21
ATOM     21  C   MOL A   1      26.525  12.796  -8.983  1.00  0.00     0.196 C 
ATOM     22  OXT MOL A   1      25.588  13.205  -8.267  1.00  0.00    -0.646 OA
ATOM     23  O   MOL A   1      26.607  11.630  -9.425  1.00  0.00    -0.646 OA
ENDBRANCH  20  21
BRANCH  20  24
ATOM     24  CB  MOL A   1      28.651  13.104 -10.247  1.00  0.00     0.040 C 
BRANCH  24  25
ATOM     25  CG  MOL A   1      29.253  14.143 -11.186  1.00  0.00    -0.020 C 
ATOM     26  CD2 MOL A   1      28.142  14.986 -11.797  1.00  0.00     0.009 C 
ATOM     27  CD1 MOL A   1      30.107  13.478 -12.221  1.00  0.00     0.009 C 
ENDBRANCH  24  25
ENDBRANCH  20  24
ENDBRANCH  18  20
ENDBRANCH   1  16
BRANCH   1  28
ATOM     28  CB  MOL A   1      29.038  14.943  -5.580  1.00  0.00     0.147 C 
BRANCH  28  29
ATOM     29  CG  MOL A   1      27.709  14.912  -4.853  1.00  0.00     0.175 C 
ATOM     30  OD1 MOL A   1      27.512  15.772  -3.975  1.00  0.00    -0.648 OA
ATOM     31  OD2 MOL A   1      26.848  14.065  -5.182  1.00  0.00    -0.648 OA
ENDBRANCH  28  29
ENDBRANCH   1  28
TORSDOF 13
ENDMDL
MODEL 9
REMARK VINA RESULT:      -4.9     19.076     21.647
REMARK  13 active torsions:
REMARK  status: ('A' for Active; 'I' for Inactive)
REMARK    1  A    between atoms: N_1  and  CA_2 
REMARK    2  A    between atoms: CA_2  and  C_3 
REMARK    3  A    between atoms: CA_2  and  CB_5 
REMARK       I    between atoms: C_3  and  N_10 
REMARK    4  A    between atoms: CB_5  and  CG_6 
REMARK    5  A    between atoms: CG_6  and  CD_7 
REMARK    6  A    between atoms: N_10  and  CA_11 
REMARK    7  A    between atoms: CA_11  and  C_12 
REMARK    8  A    between atoms: CA_11  and  CB_14 
REMARK       I    between atoms: C_12  and  N_18 
REMARK    9  A    between atoms: CB_14  and  CG_15 
REMARK   10  A    between atoms: N_18  and  CA_19 
REMARK   11  A    between atoms: CA_19  and  C_20 
REMARK   12  A    between atoms: CA_19  and  CB_22 
REMARK   13  A    between atoms: CB_22  and  CG_23 
ROOT
ATOM      1  CA  MOL A   1      26.696  17.380  -0.178  1.00  0.00     0.186 C 
ENDROOT
BRANCH   1   2
ATOM      2  N   MOL A   1      26.725  18.065  -1.463  1.00  0.00    -0.345 N 
ATOM      3  C   MOL A   1      27.853  18.511  -2.002  1.00  0.00     0.249 C 
ATOM      4  O   MOL A   1      28.951  18.421  -1.441  1.00  0.00    -0.271 OA
ATOM      5  H9  MOL A   1      25.866  18.204  -1.956  1.00  0.00     0.163 HD
BRANCH   3   6
ATOM      6  CA  MOL A   1      27.715  19.213  -3.352  1.00  0.00     0.275 C 
BRANCH   6   7
ATOM      7  N   MOL A   1      27.738  20.689  -3.172  1.00  0.00    -0.066 N 
ATOM      8  H1  MOL A   1      27.391  21.135  -4.007  1.00  0.00     0.275 HD
ATOM      9  H2  MOL A   1      28.684  20.991  -2.998  1.00  0.00     0.275 HD
ATOM     10  H3  MOL A   1      27.154  20.942  -2.390  1.00  0.00     0.275 HD
ENDBRANCH   6   7
BRANCH   6  11
ATOM     11  CB  MOL A   1      28.820  18.770  -4.314  1.00  0.00     0.053 C 
BRANCH  11  12
ATOM     12  CG  MOL A   1      28.428  18.835  -5.777  1.00  0.00     0.115 C 
BRANCH  12  13
ATOM     13  CD  MOL A   1      29.019  20.030  -6.498  1.00  0.00     0.172 C 
ATOM     14  OE1 MOL A   1      29.474  19.871  -7.654  1.00  0.00    -0.648 OA
ATOM     15  OE2 MOL A   1      29.013  21.135  -5.908  1.00  0.00    -0.648 OA
ENDBRANCH  12  13
ENDBRANCH  11  12
ENDBRANCH   6  11
ENDBRANCH   3   6
ENDBRANCH   1   2
BRANCH   1  16
ATOM     16  C   MOL A   1      26.474  15.897  -0.418  1.00  0.00     0.241 C 
ATOM     17  O   MOL A   1      27.313  15.222  -1.018  1.00  0.00    -0.271 OA
ATOM     18  N   MOL A   1      25.358  15.393   0.100  1.00  0.00    -0.345 N 
ATOM     19  H13 MOL A   1      24.731  16.004   0.584  1.00  0.00     0.163 HD
BRANCH  18  20
ATOM     20  CA  MOL A   1      25.018  13.983  -0.013  1.00  0.00     0.185 C 
BRANCH  20  21
ATOM     21  C   MOL A   1      23.797  13.732  -0.879  1.00  0.00     0.196 C 
ATOM     22  OXT MOL A   1      22.825  13.141  -0.365  1.00  0.00    -0.646 OA
ATOM     23  O   MOL A   1      23.824  14.130  -2.063  1.00  0.00    -0.646 OA
ENDBRANCH  20  21
BRANCH  20  24
ATOM     24  CB  MOL A   1      24.800  13.408   1.380  1.00  0.00     0.040 C 
BRANCH  24  25
ATOM     25  CG  MOL A   1      24.668  14.549   2.383  1.00  0.00    -0.020 C 
ATOM     26  CD2 MOL A   1      25.806  14.481   3.390  1.00  0.00     0.009 C 
ATOM     27  CD1 MOL A   1      23.318  14.516   3.034  1.00  0.00     0.009 C 
ENDBRANCH  24  25
ENDBRANCH  20  24
ENDBRANCH  18  20
ENDBRANCH   1  16
BRANCH   1  28
ATOM     28  CB  MOL A   1      25.597  17.974   0.699  1.00  0.00     0.147 C 
BRANCH  28  29
ATOM     29  CG  MOL A   1      25.825  19.446   0.975  1.00  0.00     0.175 C 
ATOM     30  OD1 MOL A   1      26.528  19.747   1.957  1.00  0.00    -0.648 OA
ATOM     31  OD2 MOL A   1      25.344  20.299   0.194  1.00  0.00    -0.648 OA
ENDBRANCH  28  29
ENDBRANCH   1  28
TORSDOF 13
ENDMDL
